215
-1465.17812
C    -2.129000000     3.837000000     2.986000000
H    -1.841000000     4.309000000     2.051000000
C    -1.225000000     3.152000000     3.791000000
C    -1.651000000     2.550000000     4.993000000
H    -1.021000000     1.932000000     5.627000000
C     0.198000000     2.929000000     3.311000000
O     0.705000000     4.199000000     2.838000000
H     0.001000000     2.269000000     2.453000000
O     1.116000000     2.379000000     4.307000000
C     2.003000000     1.441000000     3.906000000
C     1.561000000     0.123000000     4.121000000
H     0.553000000    -0.037000000     4.495000000
C     2.385000000    -0.935000000     3.788000000
O     1.820000000    -2.247000000     3.828000000
C     3.575000000    -0.604000000     3.084000000
C     4.508000000    -1.779000000     2.650000000
H     5.559000000    -1.495000000     2.734000000
C     4.225000000    -2.410000000     1.300000000
C     4.908000000    -1.894000000     0.210000000
H     5.646000000    -1.096000000     0.193000000
H     4.387000000    -2.493000000     3.467000000
C     4.023000000     0.696000000     2.770000000
H     5.059000000     0.805000000     2.460000000
C     3.144000000     1.702000000     3.195000000
C     3.429000000     3.230000000     2.935000000
H     4.503000000     3.243000000     2.733000000
H     3.159000000     3.800000000     3.827000000
C     2.736000000     3.605000000     1.676000000
C     3.549000000     3.662000000     0.537000000
H     4.602000000     3.392000000     0.541000000
C     1.419000000     4.056000000     1.648000000
C     0.872000000     4.517000000     0.430000000
H    -0.130000000     4.938000000     0.454000000
C     1.622000000     4.357000000    -0.725000000
O     0.904000000     4.470000000    -1.881000000
C     0.387000000     3.265000000    -2.531000000
C    -1.002000000     3.525000000    -3.123000000
C    -1.455000000     2.739000000    -4.221000000
H    -0.767000000     2.084000000    -4.749000000
C    -1.936000000     4.236000000    -2.338000000
H    -1.635000000     4.405000000    -1.307000000
O     1.296000000     2.923000000    -3.544000000
H     0.370000000     2.405000000    -1.846000000
C     2.915000000     3.906000000    -0.688000000
C     3.716000000     3.618000000    -1.900000000
H     4.777000000     3.828000000    -1.748000000
H     3.428000000     4.375000000    -2.631000000
C     3.460000000     2.223000000    -2.462000000
C     4.380000000     1.107000000    -2.276000000
H     5.213000000     1.384000000    -1.635000000
C     2.354000000     1.972000000    -3.243000000
C     2.113000000     0.704000000    -3.745000000
H     1.221000000     0.448000000    -4.311000000
C     2.912000000    -0.372000000    -3.474000000
O     2.558000000    -1.622000000    -3.923000000
C     1.870000000    -2.481000000    -3.000000000
C     0.613000000    -3.154000000    -3.665000000
C    -0.276000000    -2.471000000    -4.537000000
H    -0.090000000    -1.420000000    -4.746000000
C     0.354000000    -4.519000000    -3.351000000
H     1.033000000    -5.115000000    -2.747000000
O     2.768000000    -3.482000000    -2.439000000
H     1.567000000    -1.813000000    -2.181000000
C     4.068000000    -0.220000000    -2.673000000
C     4.936000000    -1.364000000    -2.313000000
H     5.995000000    -1.124000000    -2.193000000
H     4.904000000    -2.050000000    -3.163000000
C     4.376000000    -2.182000000    -1.087000000
C     3.390000000    -3.202000000    -1.216000000
C     2.865000000    -3.756000000    -0.073000000
H     2.123000000    -4.550000000    -0.050000000
C     3.239000000    -3.364000000     1.185000000
O     2.420000000    -3.695000000     2.260000000
C     1.376000000    -2.766000000     2.587000000
H     1.363000000    -2.039000000     1.761000000
C    -0.036000000    -3.358000000     2.770000000
C    -1.013000000    -2.810000000     3.608000000
H    -0.693000000    -1.944000000     4.181000000
C    -0.384000000    -4.507000000     2.030000000
H     0.348000000    -4.855000000     1.306000000
C    -1.606000000    -5.130000000     2.161000000
O    -1.915000000    -6.279000000     1.498000000
C    -2.525000000    -4.659000000     3.061000000
H    -3.461000000    -5.188000000     3.223000000
C    -2.264000000    -3.445000000     3.772000000
O    -3.203000000    -2.962000000     4.658000000
C    -2.905000000    -2.020000000     5.616000000
C    -3.308000000    -0.707000000     5.408000000
H    -3.833000000    -0.360000000     4.521000000
C    -2.304000000    -2.399000000     6.858000000
H    -2.043000000    -3.439000000     7.035000000
C    -2.095000000    -1.452000000     7.869000000
H    -1.629000000    -1.702000000     8.818000000
C    -2.401000000    -0.104000000     7.609000000
H    -2.300000000     0.644000000     8.392000000
C    -3.076000000     0.241000000     6.477000000
O    -3.474000000     1.558000000     6.294000000
C    -2.997000000     2.435000000     5.270000000
C    -3.886000000     3.241000000     4.522000000
H    -4.943000000     3.153000000     4.755000000
C    -3.491000000     3.937000000     3.384000000
O    -4.487000000     4.526000000     2.519000000
C    -4.104000000     5.284000000     1.464000000
C    -4.309000000     4.856000000     0.191000000
H    -4.768000000     3.871000000     0.147000000
C    -3.642000000     6.541000000     1.640000000
H    -3.513000000     6.833000000     2.679000000
C    -3.246000000     7.352000000     0.559000000
H    -2.750000000     8.307000000     0.707000000
C    -3.377000000     6.826000000    -0.715000000
H    -3.128000000     7.374000000    -1.620000000
C    -4.052000000     5.616000000    -0.912000000
O    -4.207000000     5.116000000    -2.205000000
C    -3.237000000     4.394000000    -2.865000000
C    -3.651000000     3.721000000    -4.030000000
H    -4.635000000     3.924000000    -4.444000000
C    -2.744000000     2.899000000    -4.690000000
O    -3.142000000     2.285000000    -5.869000000
C    -2.605000000     1.159000000    -6.507000000
C    -2.671000000    -0.085000000    -5.779000000
H    -3.233000000    -0.071000000    -4.849000000
C    -1.932000000     1.193000000    -7.717000000
H    -1.914000000     2.103000000    -8.311000000
C    -1.314000000     0.042000000    -8.226000000
H    -0.786000000     0.092000000    -9.175000000
C    -1.385000000    -1.178000000    -7.546000000
H    -0.896000000    -2.065000000    -7.942000000
C    -2.069000000    -1.214000000    -6.356000000
O    -2.346000000    -2.403000000    -5.770000000
C    -1.387000000    -3.108000000    -5.079000000
C    -1.705000000    -4.427000000    -4.650000000
H    -2.616000000    -4.885000000    -5.028000000
C    -0.815000000    -5.144000000    -3.808000000
O    -1.199000000    -6.355000000    -3.347000000
C    -0.962000000    -6.778000000    -1.992000000
C     0.031000000    -7.788000000    -1.823000000
H     0.567000000    -8.150000000    -2.697000000
C     0.299000000    -8.321000000    -0.580000000
H     1.110000000    -9.043000000    -0.524000000
C    -0.281000000    -7.737000000     0.587000000
H     0.009000000    -8.075000000     1.579000000
C    -1.165000000    -6.713000000     0.404000000
C    -1.495000000    -6.188000000    -0.867000000
H    -2.229000000    -5.408000000    -1.054000000
C    -1.085000000    -0.226000000     1.311000000
H    -1.265000000    -0.287000000     2.382000000
C     0.194000000     0.172000000     0.853000000
H     0.957000000     0.494000000     1.558000000
C     0.525000000     0.141000000    -0.458000000
H     1.504000000     0.469000000    -0.820000000
C    -0.465000000    -0.288000000    -1.373000000
H    -0.199000000    -0.247000000    -2.426000000
C    -1.779000000    -0.625000000    -0.929000000
H    -2.486000000    -0.957000000    -1.685000000
C    -2.103000000    -0.586000000     0.409000000
C    -3.545000000    -0.822000000     0.745000000
O    -4.339000000    -1.048000000    -0.154000000
O    -3.930000000    -0.735000000     1.889000000
O    -7.886000000     3.272000000     0.523000000
H    -8.817000000     3.410000000     0.695000000
H    -7.626000000     2.593000000     1.146000000
O    -5.905000000    -2.111000000     5.701000000
H    -5.266000000    -2.595000000     5.179000000
H    -6.396000000    -1.595000000     5.062000000
O    -5.572000000     1.328000000    -1.992000000
H    -4.927000000     0.794000000    -1.529000000
H    -5.687000000     0.889000000    -2.835000000
O    -4.499000000    -5.848000000     0.757000000
H    -3.658000000    -5.995000000     1.192000000
H    -5.002000000    -6.643000000     0.934000000
O    -6.739000000    -0.180000000     0.742000000
H    -5.952000000    -0.643000000     0.455000000
H    -6.409000000     0.566000000     1.242000000
O    -8.752000000    -2.621000000    -2.317000000
H    -8.691000000    -1.688000000    -2.524000000
H    -8.087000000    -2.760000000    -1.643000000
O    -8.181000000    -5.690000000    -0.380000000
H    -7.463000000    -5.065000000    -0.474000000
H    -8.485000000    -5.572000000     0.520000000
O    -5.259000000    -2.765000000     2.751000000
H    -4.613000000    -3.310000000     3.202000000
H    -4.771000000    -1.986000000     2.485000000
O    -5.108000000    -1.890000000    -2.672000000
H    -4.504000000    -1.580000000    -1.997000000
H    -5.950000000    -1.501000000    -2.438000000
O    -7.013000000    -0.344000000     4.047000000
H    -7.246000000    -0.583000000     3.150000000
H    -7.411000000     0.517000000     4.177000000
O    -6.147000000     0.119000000    -4.601000000
H    -6.456000000     0.578000000    -5.382000000
H    -6.391000000    -0.794000000    -4.746000000
O    -7.985000000    -2.935000000     3.064000000
H    -8.127000000    -3.532000000     3.799000000
H    -7.039000000    -2.953000000     2.920000000
O    -8.140000000     0.257000000    -2.072000000
H    -7.890000000     0.453000000    -2.975000000
H    -7.484000000     0.707000000    -1.539000000
O    -5.626000000    -2.431000000    -5.661000000
H    -5.233000000    -2.489000000    -4.790000000
H    -5.279000000    -3.189000000    -6.132000000
O    -4.681000000    -5.104000000    -1.683000000
H    -4.411000000    -4.192000000    -1.788000000
H    -4.547000000    -5.288000000    -0.753000000
O    -9.446000000     0.212000000     1.225000000
H   -10.047000000    -0.489000000     0.973000000
H    -8.594000000    -0.218000000     1.301000000
O    -5.261000000     1.676000000     1.998000000
H    -4.786000000     0.884000000     2.247000000
H    -5.109000000     2.284000000     2.722000000
O    -6.735000000    -2.946000000    -0.454000000
H    -5.826000000    -2.654000000    -0.514000000
H    -6.946000000    -2.882000000     0.478000000
O    -7.361000000     3.254000000    -1.963000000
H    -7.626000000     3.308000000    -1.044000000
H    -6.620000000     2.648000000    -1.963000000
