215
-1462.23258
C    -2.402000000     3.583000000     2.691000000
H    -2.265000000     3.852000000     1.647000000
C    -1.345000000     3.084000000     3.475000000
C    -1.644000000     2.611000000     4.739000000
H    -0.785000000     2.260000000     5.305000000
C     0.087000000     3.172000000     2.951000000
O     0.360000000     4.287000000     2.099000000
H     0.221000000     2.251000000     2.365000000
O     1.037000000     2.894000000     3.992000000
C     1.996000000     2.000000000     3.719000000
C     1.877000000     0.717000000     4.213000000
H     1.039000000     0.369000000     4.811000000
C     2.767000000    -0.220000000     3.760000000
O     2.341000000    -1.499000000     3.993000000
C     3.828000000     0.127000000     2.938000000
C     4.869000000    -0.960000000     2.525000000
H     5.922000000    -0.671000000     2.516000000
C     4.367000000    -1.586000000     1.245000000
C     4.930000000    -1.216000000    -0.010000000
H     5.557000000    -0.334000000     0.093000000
H     4.974000000    -1.741000000     3.281000000
C     4.000000000     1.410000000     2.549000000
H     4.829000000     1.722000000     1.920000000
C     3.056000000     2.392000000     2.897000000
C     3.195000000     3.804000000     2.233000000
H     4.266000000     4.004000000     2.157000000
H     2.941000000     4.594000000     2.942000000
C     2.437000000     3.993000000     0.905000000
C     3.128000000     4.043000000    -0.312000000
H     4.199000000     3.858000000    -0.302000000
C     1.069000000     4.140000000     0.925000000
C     0.336000000     4.154000000    -0.238000000
H    -0.745000000     4.260000000    -0.207000000
C     0.990000000     4.038000000    -1.488000000
O     0.296000000     4.045000000    -2.674000000
C    -0.001000000     2.691000000    -3.215000000
C    -1.412000000     2.590000000    -3.680000000
C    -1.774000000     2.034000000    -4.886000000
H    -1.015000000     1.615000000    -5.542000000
C    -2.366000000     2.966000000    -2.763000000
H    -2.023000000     3.403000000    -1.829000000
O     0.875000000     2.426000000    -4.317000000
H     0.223000000     2.021000000    -2.372000000
C     2.403000000     3.938000000    -1.459000000
C     3.106000000     3.637000000    -2.745000000
H     4.114000000     4.053000000    -2.800000000
H     2.616000000     4.199000000    -3.543000000
C     3.053000000     2.139000000    -3.126000000
C     4.020000000     1.229000000    -2.667000000
H     4.731000000     1.640000000    -1.955000000
C     2.011000000     1.670000000    -3.917000000
C     2.074000000     0.377000000    -4.442000000
H     1.337000000     0.082000000    -5.185000000
C     3.053000000    -0.529000000    -4.031000000
O     2.736000000    -1.795000000    -4.238000000
C     1.978000000    -2.320000000    -3.088000000
C     0.660000000    -3.010000000    -3.440000000
C    -0.006000000    -2.822000000    -4.684000000
H     0.416000000    -2.234000000    -5.496000000
C     0.044000000    -3.745000000    -2.408000000
H     0.588000000    -3.926000000    -1.485000000
O     3.002000000    -3.182000000    -2.428000000
H     1.671000000    -1.501000000    -2.421000000
C     3.980000000    -0.120000000    -3.097000000
C     4.976000000    -1.124000000    -2.515000000
H     6.011000000    -0.810000000    -2.362000000
H     5.161000000    -1.883000000    -3.278000000
C     4.518000000    -1.734000000    -1.247000000
C     3.517000000    -2.721000000    -1.226000000
C     3.043000000    -3.176000000    -0.001000000
H     2.358000000    -4.014000000    -0.102000000
C     3.392000000    -2.615000000     1.198000000
O     2.713000000    -3.122000000     2.373000000
C     1.696000000    -2.209000000     2.965000000
H     1.220000000    -1.503000000     2.268000000
C     0.554000000    -3.052000000     3.551000000
C    -0.267000000    -2.561000000     4.622000000
H    -0.010000000    -1.629000000     5.119000000
C     0.273000000    -4.324000000     2.976000000
H     0.748000000    -4.613000000     2.042000000
C    -0.908000000    -5.006000000     3.391000000
O    -1.119000000    -6.281000000     2.962000000
C    -1.692000000    -4.491000000     4.430000000
H    -2.531000000    -5.055000000     4.829000000
C    -1.339000000    -3.264000000     5.112000000
O    -2.257000000    -2.701000000     6.034000000
C    -2.026000000    -1.519000000     6.774000000
C    -2.588000000    -0.328000000     6.346000000
H    -3.088000000    -0.420000000     5.385000000
C    -1.195000000    -1.406000000     7.855000000
H    -0.709000000    -2.314000000     8.201000000
C    -0.952000000    -0.225000000     8.535000000
H    -0.271000000    -0.271000000     9.381000000
C    -1.622000000     0.991000000     8.145000000
H    -1.531000000     1.874000000     8.773000000
C    -2.480000000     0.920000000     7.037000000
O    -3.151000000     2.093000000     6.578000000
C    -2.898000000     2.477000000     5.261000000
C    -3.961000000     3.035000000     4.552000000
H    -4.967000000     2.978000000     4.959000000
C    -3.694000000     3.646000000     3.318000000
O    -4.803000000     4.019000000     2.564000000
C    -4.734000000     4.397000000     1.287000000
C    -4.699000000     3.430000000     0.268000000
H    -5.001000000     2.411000000     0.492000000
C    -4.320000000     5.750000000     1.042000000
H    -4.273000000     6.552000000     1.773000000
C    -4.060000000     6.111000000    -0.275000000
H    -3.702000000     7.111000000    -0.507000000
C    -4.176000000     5.136000000    -1.322000000
H    -3.969000000     5.375000000    -2.362000000
C    -4.568000000     3.870000000    -1.007000000
O    -4.726000000     2.954000000    -2.067000000
C    -3.752000000     2.704000000    -3.037000000
C    -4.125000000     2.136000000    -4.263000000
H    -5.154000000     1.894000000    -4.514000000
C    -3.139000000     1.934000000    -5.217000000
O    -3.440000000     1.362000000    -6.390000000
C    -2.697000000     0.323000000    -6.881000000
C    -2.717000000    -0.956000000    -6.255000000
H    -3.432000000    -1.130000000    -5.456000000
C    -1.917000000     0.525000000    -8.024000000
H    -1.933000000     1.469000000    -8.562000000
C    -1.087000000    -0.534000000    -8.410000000
H    -0.367000000    -0.289000000    -9.187000000
C    -1.150000000    -1.805000000    -7.833000000
H    -0.534000000    -2.571000000    -8.297000000
C    -1.956000000    -2.007000000    -6.709000000
O    -2.028000000    -3.212000000    -5.964000000
C    -1.271000000    -3.428000000    -4.826000000
C    -1.852000000    -4.153000000    -3.790000000
H    -2.767000000    -4.675000000    -4.062000000
C    -1.188000000    -4.333000000    -2.564000000
O    -1.830000000    -5.120000000    -1.672000000
C    -1.249000000    -5.900000000    -0.735000000
C    -0.489000000    -7.039000000    -1.151000000
H    -0.275000000    -7.157000000    -2.210000000
C     0.117000000    -7.871000000    -0.174000000
H     0.664000000    -8.752000000    -0.500000000
C    -0.092000000    -7.642000000     1.203000000
H     0.300000000    -8.321000000     1.956000000
C    -0.808000000    -6.562000000     1.615000000
C    -1.423000000    -5.732000000     0.610000000
H    -2.113000000    -4.915000000     0.803000000
C    -1.020000000    -0.044000000     1.249000000
H    -1.139000000     0.151000000     2.312000000
C     0.132000000     0.350000000     0.585000000
H     0.973000000     0.799000000     1.107000000
C     0.313000000     0.212000000    -0.766000000
H     1.205000000     0.572000000    -1.277000000
C    -0.665000000    -0.361000000    -1.563000000
H    -0.523000000    -0.479000000    -2.634000000
C    -1.818000000    -0.828000000    -0.940000000
H    -2.535000000    -1.275000000    -1.626000000
C    -2.023000000    -0.676000000     0.470000000
C    -3.305000000    -1.119000000     1.197000000
O    -4.144000000    -1.508000000     0.501000000
O    -3.320000000    -1.288000000     2.388000000
O    -8.031000000     0.979000000     0.822000000
H    -7.629000000     0.828000000    -0.034000000
H    -7.329000000     0.807000000     1.450000000
O    -4.332000000    -3.693000000     2.785000000
H    -4.052000000    -2.955000000     2.244000000
H    -3.833000000    -3.598000000     3.596000000
O    -6.274000000    -0.983000000    -0.923000000
H    -6.344000000    -0.058000000    -1.156000000
H    -5.419000000    -1.060000000    -0.499000000
O    -5.079000000    -1.796000000     4.806000000
H    -5.931000000    -1.727000000     4.374000000
H    -4.444000000    -1.727000000     4.094000000
O    -7.142000000    -2.763000000     1.017000000
H    -6.305000000    -3.106000000     1.331000000
H    -6.901000000    -2.057000000     0.417000000
O    -4.569000000    -5.798000000     0.710000000
H    -4.448000000    -5.097000000     0.069000000
H    -4.635000000    -5.344000000     1.551000000
O    -4.420000000    -6.770000000     5.463000000
H    -5.123000000    -6.226000000     5.109000000
H    -4.105000000    -7.274000000     4.713000000
O    -5.691000000    -2.130000000    -3.676000000
H    -5.958000000    -1.941000000    -2.776000000
H    -6.218000000    -1.537000000    -4.211000000
O    -7.529000000    -2.217000000     3.768000000
H    -8.164000000    -2.874000000     4.055000000
H    -7.524000000    -2.289000000     2.814000000
O    -9.760000000    -2.844000000     0.400000000
H    -9.761000000    -2.018000000     0.884000000
H    -8.933000000    -3.262000000     0.641000000
O    -4.088000000    -3.702000000    -1.091000000
H    -4.066000000    -2.883000000    -0.596000000
H    -3.169000000    -3.896000000    -1.275000000
O    -4.462000000    -6.293000000    -3.590000000
H    -4.596000000    -6.204000000    -2.646000000
H    -4.734000000    -7.189000000    -3.787000000
O    -6.193000000    -5.391000000     3.917000000
H    -6.577000000    -5.873000000     3.185000000
H    -5.667000000    -4.706000000     3.504000000
O    -5.965000000     0.152000000     2.411000000
H    -5.551000000     0.629000000     3.131000000
H    -5.291000000    -0.458000000     2.110000000
O    -6.925000000    -4.454000000    -1.761000000
H    -7.040000000    -3.755000000    -1.117000000
H    -6.271000000    -4.113000000    -2.370000000
O    -5.381000000    -3.289000000     7.153000000
H    -4.534000000    -3.680000000     7.365000000
H    -5.197000000    -2.705000000     6.416000000
O    -9.322000000     3.059000000     1.798000000
H    -8.912000000     2.398000000     1.240000000
H    -9.822000000     2.555000000     2.440000000
O    -7.113000000     1.441000000    -1.876000000
H    -7.915000000     1.945000000    -2.008000000
H    -6.491000000     1.810000000    -2.504000000
O    -7.790000000    -4.213000000     5.887000000
H    -7.122000000    -3.875000000     6.483000000
H    -7.295000000    -4.677000000     5.211000000
