215
-1454.93053
C    -2.252000000     3.379000000     2.939000000
H    -1.763000000     4.325000000     2.720000000
C    -1.449000000     2.260000000     3.275000000
C    -2.176000000     1.074000000     3.494000000
H    -1.571000000     0.188000000     3.670000000
C     0.076000000     2.246000000     3.310000000
O     0.785000000     3.546000000     3.346000000
H     0.352000000     1.750000000     2.368000000
O     0.557000000     1.493000000     4.428000000
C     1.521000000     0.529000000     4.224000000
C     1.089000000    -0.817000000     4.177000000
H     0.030000000    -1.045000000     4.271000000
C     1.970000000    -1.792000000     3.857000000
O     1.400000000    -3.071000000     3.601000000
C     3.272000000    -1.579000000     3.482000000
C     4.195000000    -2.671000000     2.897000000
H     5.253000000    -2.447000000     3.046000000
C     3.785000000    -2.763000000     1.463000000
C     4.569000000    -2.102000000     0.497000000
H     5.363000000    -1.406000000     0.754000000
H     3.945000000    -3.594000000     3.423000000
C     3.659000000    -0.282000000     3.377000000
H     4.640000000    -0.023000000     2.987000000
C     2.804000000     0.780000000     3.717000000
C     3.385000000     2.179000000     3.819000000
H     4.470000000     2.194000000     3.942000000
H     2.990000000     2.574000000     4.758000000
C     3.041000000     3.031000000     2.594000000
C     3.940000000     3.136000000     1.537000000
H     4.897000000     2.629000000     1.632000000
C     1.833000000     3.742000000     2.437000000
C     1.485000000     4.318000000     1.192000000
H     0.466000000     4.644000000     1.005000000
C     2.436000000     4.399000000     0.187000000
O     1.883000000     4.843000000    -0.952000000
C     1.303000000     3.863000000    -1.836000000
C    -0.087000000     4.306000000    -2.380000000
C    -0.573000000     3.572000000    -3.496000000
H     0.085000000     2.829000000    -3.939000000
C    -0.925000000     5.234000000    -1.789000000
H    -0.570000000     5.669000000    -0.858000000
O     2.242000000     3.438000000    -2.823000000
H     1.094000000     2.961000000    -1.241000000
C     3.660000000     3.764000000     0.324000000
C     4.574000000     3.537000000    -0.918000000
H     5.554000000     3.226000000    -0.550000000
H     4.602000000     4.491000000    -1.450000000
C     4.024000000     2.330000000    -1.627000000
C     4.667000000     1.108000000    -1.407000000
H     5.606000000     1.058000000    -0.862000000
C     3.025000000     2.343000000    -2.567000000
C     2.632000000     1.229000000    -3.286000000
H     1.804000000     1.295000000    -3.987000000
C     3.201000000    -0.001000000    -3.029000000
O     2.646000000    -1.112000000    -3.668000000
C     1.778000000    -1.938000000    -2.848000000
C     0.489000000    -2.281000000    -3.527000000
C     0.083000000    -1.525000000    -4.662000000
H     0.732000000    -0.770000000    -5.099000000
C    -0.343000000    -3.276000000    -2.978000000
H    -0.127000000    -3.808000000    -2.055000000
O     2.595000000    -3.119000000    -2.503000000
H     1.554000000    -1.445000000    -1.891000000
C     4.203000000    -0.035000000    -2.050000000
C     4.924000000    -1.406000000    -1.833000000
H     5.956000000    -1.365000000    -1.478000000
H     4.956000000    -1.920000000    -2.796000000
C     4.158000000    -2.201000000    -0.844000000
C     3.144000000    -3.059000000    -1.233000000
C     2.478000000    -3.805000000    -0.282000000
H     1.608000000    -4.401000000    -0.546000000
C     2.795000000    -3.617000000     1.026000000
O     1.970000000    -4.310000000     1.889000000
C     0.916000000    -3.480000000     2.334000000
H     0.796000000    -2.595000000     1.691000000
C    -0.298000000    -4.259000000     2.485000000
C    -1.228000000    -4.070000000     3.493000000
H    -0.956000000    -3.356000000     4.265000000
C    -0.622000000    -5.167000000     1.522000000
H     0.055000000    -5.307000000     0.684000000
C    -1.778000000    -5.951000000     1.527000000
O    -1.933000000    -7.019000000     0.650000000
C    -2.616000000    -5.860000000     2.619000000
H    -3.443000000    -6.551000000     2.761000000
C    -2.397000000    -4.872000000     3.621000000
O    -3.312000000    -4.653000000     4.593000000
C    -3.474000000    -3.429000000     5.159000000
C    -4.122000000    -2.431000000     4.339000000
H    -4.537000000    -2.676000000     3.365000000
C    -2.786000000    -3.085000000     6.315000000
H    -2.178000000    -3.841000000     6.807000000
C    -2.684000000    -1.721000000     6.666000000
H    -1.973000000    -1.537000000     7.468000000
C    -3.301000000    -0.758000000     5.892000000
H    -3.177000000     0.303000000     6.095000000
C    -3.961000000    -1.072000000     4.720000000
O    -4.328000000    -0.073000000     3.806000000
C    -3.589000000     1.093000000     3.571000000
C    -4.325000000     2.191000000     3.272000000
H    -5.410000000     2.148000000     3.338000000
C    -3.654000000     3.387000000     2.862000000
O    -4.384000000     4.530000000     2.634000000
C    -3.943000000     5.589000000     1.792000000
C    -3.373000000     5.380000000     0.564000000
H    -3.088000000     4.394000000     0.205000000
C    -4.248000000     6.854000000     2.223000000
H    -4.602000000     6.869000000     3.250000000
C    -4.160000000     7.963000000     1.363000000
H    -4.513000000     8.960000000     1.613000000
C    -3.641000000     7.789000000     0.083000000
H    -3.686000000     8.644000000    -0.586000000
C    -3.295000000     6.504000000    -0.330000000
O    -3.053000000     6.405000000    -1.671000000
C    -2.250000000     5.384000000    -2.248000000
C    -2.703000000     4.748000000    -3.374000000
H    -3.717000000     4.889000000    -3.739000000
C    -1.872000000     3.839000000    -3.980000000
O    -2.487000000     3.018000000    -4.957000000
C    -1.871000000     2.223000000    -5.897000000
C    -2.155000000     0.864000000    -5.919000000
H    -2.820000000     0.485000000    -5.147000000
C    -0.966000000     2.764000000    -6.721000000
H    -0.709000000     3.820000000    -6.723000000
C    -0.303000000     1.947000000    -7.662000000
H     0.493000000     2.352000000    -8.282000000
C    -0.638000000     0.574000000    -7.714000000
H    -0.048000000    -0.065000000    -8.366000000
C    -1.518000000     0.050000000    -6.773000000
O    -1.410000000    -1.312000000    -6.620000000
C    -1.053000000    -1.857000000    -5.405000000
C    -1.751000000    -2.970000000    -4.951000000
H    -2.646000000    -3.237000000    -5.508000000
C    -1.407000000    -3.662000000    -3.787000000
O    -2.184000000    -4.746000000    -3.563000000
C    -1.727000000    -5.795000000    -2.779000000
C    -1.024000000    -6.846000000    -3.494000000
H    -0.819000000    -6.793000000    -4.561000000
C    -0.653000000    -7.935000000    -2.728000000
H    -0.209000000    -8.841000000    -3.133000000
C    -0.874000000    -7.955000000    -1.376000000
H    -0.488000000    -8.841000000    -0.879000000
C    -1.617000000    -6.975000000    -0.687000000
C    -2.086000000    -5.886000000    -1.427000000
H    -2.633000000    -5.044000000    -1.010000000
C    -2.028000000    -1.090000000     0.097000000
H    -2.345000000    -2.130000000     0.118000000
C    -0.673000000    -0.717000000     0.022000000
H     0.094000000    -1.486000000     0.042000000
C    -0.314000000     0.550000000    -0.135000000
H     0.817000000     0.645000000    -0.130000000
C    -1.214000000     1.575000000    -0.302000000
H    -1.014000000     2.639000000    -0.395000000
C    -2.580000000     1.185000000    -0.185000000
H    -3.272000000     1.983000000    -0.440000000
C    -3.002000000    -0.107000000     0.111000000
C    -4.483000000    -0.519000000     0.072000000
O    -5.286000000     0.289000000    -0.354000000
O    -4.810000000    -1.629000000     0.429000000
O    -7.230000000    -2.207000000     1.577000000
H    -7.348000000    -1.270000000     1.417000000
H    -6.405000000    -2.422000000     1.142000000
O    -7.195000000    -0.635000000     4.502000000
H    -6.928000000    -0.393000000     3.615000000
H    -7.560000000    -1.515000000     4.410000000
O    -5.103000000    -4.291000000    -0.141000000
H    -5.051000000    -3.351000000    -0.312000000
H    -5.335000000    -4.353000000     0.786000000
O    -5.427000000     2.425000000    -4.531000000
H    -4.999000000     1.913000000    -3.845000000
H    -4.736000000     2.989000000    -4.878000000
O    -7.343000000     0.609000000     1.488000000
H    -7.429000000     1.562000000     1.465000000
H    -6.598000000     0.423000000     0.916000000
O    -7.814000000    -3.402000000     4.006000000
H    -8.463000000    -4.065000000     3.770000000
H    -7.464000000    -3.099000000     3.168000000
O    -8.632000000    -4.856000000     0.441000000
H    -8.996000000    -5.187000000     1.262000000
H    -7.851000000    -4.369000000     0.703000000
O    -5.068000000    -1.499000000    -5.340000000
H    -4.993000000    -2.125000000    -4.620000000
H    -5.205000000    -0.655000000    -4.910000000
O    -5.860000000    -6.389000000    -1.492000000
H    -6.654000000    -6.694000000    -1.053000000
H    -5.493000000    -5.735000000    -0.897000000
O    -4.459000000     0.371000000    -3.041000000
H    -3.622000000     0.122000000    -2.650000000
H    -4.975000000     0.709000000    -2.308000000
O    -6.125000000     2.645000000    -0.939000000
H    -6.390000000     3.048000000    -0.112000000
H    -5.663000000     1.848000000    -0.679000000
O    -7.205000000    -1.237000000    -1.643000000
H    -6.481000000    -0.883000000    -1.126000000
H    -7.502000000    -0.499000000    -2.175000000
O    -5.608000000    -5.081000000     2.666000000
H    -5.291000000    -4.690000000     3.480000000
H    -5.799000000    -5.991000000     2.895000000
O    -5.333000000    -3.063000000    -3.086000000
H    -5.079000000    -3.767000000    -2.489000000
H    -5.978000000    -2.553000000    -2.595000000
O   -10.013000000     0.543000000     1.863000000
H   -10.073000000     0.657000000     0.915000000
H    -9.157000000     0.904000000     2.094000000
O    -7.771000000     3.331000000     0.944000000
H    -7.835000000     3.635000000     1.849000000
H    -8.559000000     3.672000000     0.520000000
O    -6.707000000     4.850000000    -2.691000000
H    -6.570000000     4.155000000    -2.047000000
H    -7.646000000     5.032000000    -2.651000000
O    -7.701000000     1.249000000    -3.434000000
H    -7.070000000     1.791000000    -3.908000000
H    -8.171000000     1.865000000    -2.871000000
O    -8.835000000    -3.355000000    -2.706000000
H    -9.535000000    -2.703000000    -2.742000000
H    -8.092000000    -2.889000000    -2.323000000
