215
-1463.49063
C    -1.979000000     3.881000000     2.485000000
H    -1.371000000     4.327000000     1.702000000
C    -1.331000000     3.015000000     3.399000000
C    -2.076000000     2.334000000     4.390000000
H    -1.631000000     1.573000000     5.026000000
C     0.185000000     2.800000000     3.310000000
O     0.961000000     4.040000000     3.037000000
H     0.520000000     2.196000000     2.454000000
O     0.621000000     2.114000000     4.523000000
C     1.519000000     1.090000000     4.387000000
C     0.935000000    -0.192000000     4.358000000
H    -0.135000000    -0.378000000     4.413000000
C     1.673000000    -1.319000000     4.016000000
O     1.006000000    -2.569000000     3.999000000
C     3.012000000    -1.227000000     3.697000000
C     3.852000000    -2.450000000     3.346000000
H     4.874000000    -2.170000000     3.608000000
C     3.653000000    -2.852000000     1.901000000
C     4.380000000    -2.198000000     0.918000000
H     5.096000000    -1.407000000     1.126000000
H     3.536000000    -3.284000000     3.976000000
C     3.512000000     0.076000000     3.585000000
H     4.499000000     0.124000000     3.132000000
C     2.835000000     1.235000000     3.886000000
C     3.437000000     2.660000000     3.705000000
H     4.507000000     2.489000000     3.843000000
H     3.085000000     3.339000000     4.484000000
C     3.123000000     3.251000000     2.328000000
C     3.898000000     2.951000000     1.231000000
H     4.744000000     2.276000000     1.325000000
C     1.930000000     3.992000000     2.120000000
C     1.512000000     4.434000000     0.871000000
H     0.567000000     4.941000000     0.694000000
C     2.294000000     4.070000000    -0.190000000
O     1.870000000     4.458000000    -1.427000000
C     1.430000000     3.395000000    -2.285000000
C     0.123000000     3.708000000    -2.977000000
C    -0.374000000     2.925000000    -4.029000000
H     0.200000000     2.063000000    -4.361000000
C    -0.614000000     4.865000000    -2.579000000
H    -0.306000000     5.510000000    -1.760000000
O     2.476000000     2.999000000    -3.159000000
H     1.365000000     2.446000000    -1.733000000
C     3.546000000     3.455000000    -0.052000000
C     4.572000000     3.134000000    -1.153000000
H     5.613000000     3.104000000    -0.823000000
H     4.477000000     3.887000000    -1.938000000
C     4.229000000     1.872000000    -1.902000000
C     4.856000000     0.694000000    -1.505000000
H     5.516000000     0.738000000    -0.642000000
C     3.203000000     1.898000000    -2.878000000
C     2.790000000     0.697000000    -3.421000000
H     1.904000000     0.629000000    -4.047000000
C     3.377000000    -0.534000000    -3.015000000
O     2.889000000    -1.687000000    -3.559000000
C     2.056000000    -2.495000000    -2.764000000
C     0.883000000    -3.091000000    -3.539000000
C     0.355000000    -2.404000000    -4.725000000
H     0.809000000    -1.510000000    -5.144000000
C     0.130000000    -4.168000000    -3.035000000
H     0.571000000    -4.659000000    -2.172000000
O     2.828000000    -3.540000000    -2.097000000
H     1.585000000    -1.857000000    -2.002000000
C     4.431000000    -0.520000000    -2.039000000
C     4.979000000    -1.802000000    -1.573000000
H     5.962000000    -1.559000000    -1.164000000
H     5.176000000    -2.483000000    -2.404000000
C     4.205000000    -2.512000000    -0.451000000
C     3.200000000    -3.393000000    -0.758000000
C     2.448000000    -3.998000000     0.185000000
H     1.596000000    -4.567000000    -0.178000000
C     2.638000000    -3.787000000     1.543000000
O     1.688000000    -4.166000000     2.421000000
C     0.681000000    -3.156000000     2.721000000
H     0.613000000    -2.394000000     1.930000000
C    -0.786000000    -3.823000000     2.690000000
C    -1.782000000    -3.168000000     3.380000000
H    -1.529000000    -2.209000000     3.825000000
C    -1.050000000    -5.006000000     2.019000000
H    -0.211000000    -5.512000000     1.549000000
C    -2.395000000    -5.445000000     1.992000000
O    -2.771000000    -6.532000000     1.273000000
C    -3.359000000    -4.757000000     2.644000000
H    -4.396000000    -5.068000000     2.544000000
C    -3.086000000    -3.635000000     3.350000000
O    -4.158000000    -2.829000000     3.710000000
C    -4.247000000    -1.934000000     4.764000000
C    -4.043000000    -0.530000000     4.525000000
H    -3.909000000    -0.191000000     3.501000000
C    -4.787000000    -2.288000000     6.013000000
H    -4.836000000    -3.371000000     6.087000000
C    -4.955000000    -1.384000000     7.053000000
H    -5.203000000    -1.708000000     8.061000000
C    -4.683000000    -0.083000000     6.813000000
H    -4.784000000     0.646000000     7.613000000
C    -4.237000000     0.369000000     5.533000000
O    -4.149000000     1.735000000     5.355000000
C    -3.439000000     2.377000000     4.371000000
C    -4.071000000     3.217000000     3.484000000
H    -5.155000000     3.280000000     3.437000000
C    -3.365000000     3.954000000     2.586000000
O    -4.088000000     4.685000000     1.646000000
C    -3.587000000     5.646000000     0.815000000
C    -3.507000000     5.462000000    -0.619000000
H    -3.764000000     4.533000000    -1.120000000
C    -3.193000000     6.887000000     1.391000000
H    -3.356000000     6.975000000     2.463000000
C    -2.635000000     7.879000000     0.581000000
H    -2.223000000     8.759000000     1.069000000
C    -2.488000000     7.674000000    -0.816000000
H    -2.117000000     8.439000000    -1.494000000
C    -2.801000000     6.471000000    -1.398000000
O    -2.595000000     6.193000000    -2.739000000
C    -1.800000000     5.143000000    -3.164000000
C    -2.228000000     4.423000000    -4.254000000
H    -3.100000000     4.770000000    -4.802000000
C    -1.592000000     3.258000000    -4.636000000
O    -2.090000000     2.548000000    -5.759000000
C    -1.393000000     1.583000000    -6.419000000
C    -1.727000000     0.270000000    -6.089000000
H    -2.359000000     0.055000000    -5.231000000
C    -0.435000000     1.852000000    -7.455000000
H    -0.231000000     2.847000000    -7.843000000
C     0.179000000     0.808000000    -8.071000000
H     0.961000000     0.983000000    -8.805000000
C    -0.075000000    -0.526000000    -7.657000000
H     0.373000000    -1.368000000    -8.178000000
C    -1.175000000    -0.805000000    -6.783000000
O    -1.399000000    -2.132000000    -6.402000000
C    -0.866000000    -2.788000000    -5.286000000
C    -1.519000000    -3.867000000    -4.809000000
H    -2.444000000    -4.276000000    -5.206000000
C    -1.076000000    -4.542000000    -3.643000000
O    -1.819000000    -5.579000000    -3.224000000
C    -1.621000000    -6.290000000    -2.114000000
C    -0.762000000    -7.431000000    -2.231000000
H    -0.412000000    -7.733000000    -3.214000000
C    -0.689000000    -8.266000000    -1.182000000
H    -0.281000000    -9.267000000    -1.299000000
C    -1.291000000    -7.984000000     0.026000000
H    -1.322000000    -8.706000000     0.838000000
C    -2.087000000    -6.872000000     0.135000000
C    -2.248000000    -5.990000000    -0.916000000
H    -2.909000000    -5.129000000    -0.876000000
C    -2.587000000    -0.750000000     0.872000000
H    -3.112000000    -1.662000000     1.145000000
C    -1.261000000    -0.686000000     0.647000000
H    -0.692000000    -1.612000000     0.605000000
C    -0.650000000     0.464000000     0.237000000
H     0.377000000     0.396000000    -0.059000000
C    -1.410000000     1.550000000     0.081000000
H    -1.014000000     2.411000000    -0.451000000
C    -2.755000000     1.545000000     0.281000000
H    -3.423000000     2.398000000     0.195000000
C    -3.404000000     0.357000000     0.744000000
C    -4.880000000     0.248000000     0.693000000
O    -5.584000000     1.295000000     0.588000000
O    -5.399000000    -0.844000000     0.910000000
O    -7.261000000    -1.116000000     2.857000000
H    -7.630000000    -0.278000000     2.581000000
H    -6.416000000    -1.165000000     2.410000000
O    -7.638000000    -0.419000000     5.420000000
H    -7.492000000    -0.935000000     4.627000000
H    -7.216000000    -0.924000000     6.116000000
O    -4.422000000    -3.144000000    -0.185000000
H    -4.607000000    -2.539000000     0.533000000
H    -5.091000000    -3.824000000    -0.103000000
O    -8.100000000     0.952000000     1.390000000
H    -8.301000000     1.471000000     0.611000000
H    -7.154000000     0.812000000     1.348000000
O    -7.460000000    -3.873000000     3.027000000
H    -7.465000000    -4.235000000     3.913000000
H    -7.385000000    -2.927000000     3.155000000
O    -9.665000000    -1.431000000     0.406000000
H    -9.710000000    -0.688000000     1.009000000
H    -8.757000000    -1.439000000     0.104000000
O    -8.940000000    -4.139000000     0.412000000
H    -9.197000000    -3.257000000     0.143000000
H    -8.961000000    -4.114000000     1.369000000
O    -8.053000000    -0.812000000    -3.560000000
H    -7.834000000    -0.968000000    -2.641000000
H    -8.184000000     0.135000000    -3.617000000
O    -4.201000000     1.103000000    -3.242000000
H    -3.975000000     0.334000000    -2.718000000
H    -4.595000000     1.711000000    -2.617000000
O    -5.643000000     3.098000000    -1.473000000
H    -6.042000000     3.806000000    -0.967000000
H    -5.589000000     2.366000000    -0.858000000
O    -4.929000000    -1.568000000    -4.813000000
H    -5.038000000    -0.756000000    -5.307000000
H    -4.364000000    -1.327000000    -4.078000000
O    -7.079000000    -1.325000000    -1.002000000
H    -6.661000000    -0.819000000    -0.305000000
H    -6.410000000    -1.952000000    -1.276000000
O    -6.387000000    -4.850000000     0.529000000
H    -6.522000000    -5.083000000     1.447000000
H    -7.222000000    -4.472000000     0.252000000
O    -3.747000000    -1.457000000    -2.280000000
H    -2.852000000    -1.400000000    -1.945000000
H    -4.186000000    -2.066000000    -1.687000000
O    -6.931000000     4.969000000     0.300000000
H    -6.765000000     5.567000000     1.029000000
H    -7.566000000     4.341000000     0.646000000
O    -6.337000000    -3.305000000    -3.231000000
H    -5.493000000    -3.234000000    -3.678000000
H    -6.799000000    -2.499000000    -3.462000000
O    -5.631000000     5.106000000    -3.665000000
H    -5.426000000     5.947000000    -3.255000000
H    -5.572000000     4.471000000    -2.951000000
O    -9.363000000     2.918000000    -0.221000000
H    -9.740000000     2.602000000    -1.043000000
H    -9.612000000     3.841000000    -0.183000000
O    -6.795000000     2.021000000     6.561000000
H    -6.827000000     1.305000000     5.926000000
H    -6.937000000     2.810000000     6.038000000
