215
-1442.73172
C    -1.785000000     3.438000000     1.566000000
H    -1.170000000     3.808000000     0.749000000
C    -1.356000000     2.834000000     2.734000000
C    -2.276000000     2.392000000     3.759000000
H    -2.007000000     1.998000000     4.736000000
C     0.122000000     2.661000000     3.041000000
O     0.922000000     3.844000000     2.625000000
H     0.400000000     1.780000000     2.444000000
O     0.399000000     2.319000000     4.463000000
C     1.336000000     1.257000000     4.585000000
C     0.754000000     0.045000000     4.918000000
H    -0.325000000    -0.055000000     5.007000000
C     1.420000000    -1.111000000     4.548000000
O     0.768000000    -2.275000000     4.623000000
C     2.780000000    -1.134000000     4.063000000
C     3.550000000    -2.369000000     3.609000000
H     4.624000000    -2.174000000     3.662000000
C     3.103000000    -2.804000000     2.241000000
C     3.994000000    -2.639000000     1.218000000
H     4.955000000    -2.160000000     1.384000000
H     3.391000000    -3.136000000     4.370000000
C     3.394000000     0.104000000     3.907000000
H     4.350000000     0.101000000     3.389000000
C     2.685000000     1.289000000     4.120000000
C     3.335000000     2.556000000     3.663000000
H     4.420000000     2.480000000     3.759000000
H     3.015000000     3.429000000     4.236000000
C     3.155000000     2.842000000     2.210000000
C     4.034000000     2.448000000     1.232000000
H     4.890000000     1.853000000     1.539000000
C     1.966000000     3.566000000     1.751000000
C     1.875000000     3.953000000     0.403000000
H     1.106000000     4.569000000    -0.057000000
C     2.839000000     3.624000000    -0.477000000
O     2.567000000     3.906000000    -1.794000000
C     2.109000000     2.794000000    -2.656000000
C     1.066000000     3.253000000    -3.667000000
C     0.897000000     2.642000000    -4.912000000
H     1.511000000     1.859000000    -5.348000000
C     0.241000000     4.337000000    -3.298000000
H     0.389000000     4.907000000    -2.384000000
O     3.227000000     2.274000000    -3.464000000
H     1.701000000     1.982000000    -2.036000000
C     3.873000000     2.860000000    -0.070000000
C     4.841000000     2.333000000    -1.097000000
H     5.784000000     2.076000000    -0.611000000
H     4.964000000     3.158000000    -1.802000000
C     4.462000000     1.050000000    -1.922000000
C     4.923000000    -0.169000000    -1.418000000
H     5.644000000    -0.278000000    -0.612000000
C     3.666000000     1.061000000    -3.064000000
C     3.091000000    -0.130000000    -3.537000000
H     2.368000000    -0.019000000    -4.341000000
C     3.447000000    -1.346000000    -3.004000000
O     2.639000000    -2.412000000    -3.311000000
C     1.600000000    -2.725000000    -2.327000000
C     0.306000000    -2.902000000    -3.079000000
C     0.136000000    -2.418000000    -4.362000000
H     0.932000000    -1.937000000    -4.925000000
C    -0.741000000    -3.325000000    -2.288000000
H    -0.567000000    -3.575000000    -1.244000000
O     2.027000000    -3.881000000    -1.584000000
H     1.507000000    -1.921000000    -1.582000000
C     4.345000000    -1.361000000    -1.949000000
C     4.637000000    -2.696000000    -1.238000000
H     5.651000000    -2.591000000    -0.845000000
H     4.775000000    -3.587000000    -1.853000000
C     3.615000000    -3.015000000    -0.059000000
C     2.452000000    -3.700000000    -0.323000000
C     1.601000000    -3.974000000     0.736000000
H     0.610000000    -4.413000000     0.659000000
C     1.965000000    -3.602000000     2.006000000
O     1.097000000    -3.987000000     3.066000000
C     0.225000000    -2.891000000     3.413000000
H     0.297000000    -2.188000000     2.570000000
C    -1.212000000    -3.355000000     3.650000000
C    -2.174000000    -2.625000000     4.474000000
H    -1.809000000    -1.755000000     5.015000000
C    -1.611000000    -4.440000000     2.946000000
H    -0.854000000    -4.996000000     2.398000000
C    -2.915000000    -4.814000000     2.963000000
O    -3.361000000    -5.922000000     2.224000000
C    -3.890000000    -4.151000000     3.749000000
H    -4.898000000    -4.555000000     3.771000000
C    -3.490000000    -3.023000000     4.418000000
O    -4.504000000    -2.383000000     5.019000000
C    -4.453000000    -1.072000000     5.511000000
C    -4.485000000     0.025000000     4.689000000
H    -4.441000000    -0.112000000     3.611000000
C    -4.444000000    -0.857000000     6.913000000
H    -4.612000000    -1.764000000     7.489000000
C    -4.237000000     0.395000000     7.465000000
H    -4.224000000     0.497000000     8.547000000
C    -4.316000000     1.478000000     6.594000000
H    -4.270000000     2.443000000     7.093000000
C    -4.459000000     1.275000000     5.218000000
O    -4.632000000     2.385000000     4.411000000
C    -3.646000000     2.734000000     3.512000000
C    -4.075000000     3.416000000     2.379000000
H    -5.087000000     3.813000000     2.352000000
C    -3.138000000     3.742000000     1.441000000
O    -3.617000000     4.404000000     0.352000000
C    -2.926000000     5.350000000    -0.337000000
C    -2.562000000     5.077000000    -1.610000000
H    -2.811000000     4.138000000    -2.097000000
C    -2.568000000     6.568000000     0.273000000
H    -2.704000000     6.748000000     1.336000000
C    -1.907000000     7.535000000    -0.519000000
H    -1.663000000     8.481000000    -0.044000000
C    -1.658000000     7.289000000    -1.867000000
H    -1.197000000     8.074000000    -2.462000000
C    -1.940000000     6.037000000    -2.386000000
O    -1.706000000     5.799000000    -3.743000000
C    -0.858000000     4.780000000    -4.043000000
C    -1.199000000     3.998000000    -5.113000000
H    -2.047000000     4.236000000    -5.750000000
C    -0.346000000     2.974000000    -5.564000000
O    -0.735000000     2.379000000    -6.742000000
C    -0.450000000     1.128000000    -7.220000000
C    -1.001000000     0.113000000    -6.454000000
H    -1.704000000     0.371000000    -5.666000000
C     0.343000000     0.889000000    -8.357000000
H     0.746000000     1.664000000    -9.004000000
C     0.598000000    -0.415000000    -8.673000000
H     1.164000000    -0.635000000    -9.575000000
C     0.082000000    -1.468000000    -7.942000000
H     0.373000000    -2.455000000    -8.293000000
C    -0.728000000    -1.194000000    -6.925000000
O    -1.340000000    -2.248000000    -6.278000000
C    -1.118000000    -2.592000000    -4.965000000
C    -2.206000000    -3.150000000    -4.230000000
H    -3.168000000    -3.191000000    -4.734000000
C    -2.001000000    -3.497000000    -2.837000000
O    -2.943000000    -4.102000000    -2.067000000
C    -2.733000000    -5.200000000    -1.340000000
C    -2.032000000    -6.356000000    -1.721000000
H    -1.753000000    -6.355000000    -2.771000000
C    -1.809000000    -7.405000000    -0.826000000
H    -1.302000000    -8.335000000    -1.068000000
C    -2.301000000    -7.261000000     0.495000000
H    -2.074000000    -8.016000000     1.244000000
C    -2.933000000    -6.125000000     0.942000000
C    -3.081000000    -5.090000000    -0.019000000
H    -3.448000000    -4.105000000     0.261000000
C    -1.397000000     0.043000000     0.539000000
H    -1.794000000     0.046000000     1.550000000
C    -0.021000000     0.038000000     0.280000000
H     0.718000000    -0.008000000     1.076000000
C     0.475000000     0.212000000    -0.973000000
H     1.519000000     0.331000000    -1.179000000
C    -0.413000000     0.359000000    -2.061000000
H    -0.135000000     0.487000000    -3.104000000
C    -1.795000000     0.430000000    -1.789000000
H    -2.436000000     0.612000000    -2.648000000
C    -2.276000000     0.300000000    -0.532000000
C    -3.720000000     0.460000000    -0.303000000
O    -4.435000000     0.868000000    -1.198000000
O    -4.259000000     0.263000000     0.797000000
O    -6.765000000     0.492000000     2.239000000
H    -6.395000000     1.232000000     2.720000000
H    -6.312000000     0.504000000     1.396000000
O    -5.011000000    -2.222000000     1.156000000
H    -4.831000000    -1.318000000     0.898000000
H    -5.039000000    -2.197000000     2.112000000
O    -5.541000000     2.372000000    -6.378000000
H    -6.088000000     1.631000000    -6.120000000
H    -5.205000000     2.721000000    -5.552000000
O    -6.791000000     1.612000000    -0.555000000
H    -7.267000000     1.621000000    -1.385000000
H    -5.888000000     1.407000000    -0.798000000
O    -8.129000000    -1.861000000     2.334000000
H    -7.523000000    -1.129000000     2.449000000
H    -7.742000000    -2.575000000     2.840000000
O    -9.744000000     0.407000000    -1.900000000
H    -8.998000000     0.810000000    -2.344000000
H   -10.065000000    -0.249000000    -2.519000000
O    -9.742000000    -1.468000000     0.284000000
H    -9.094000000    -1.079000000    -0.303000000
H    -9.264000000    -1.622000000     1.099000000
O    -4.864000000    -0.665000000    -5.791000000
H    -4.898000000    -0.939000000    -4.875000000
H    -4.569000000     0.246000000    -5.758000000
O    -4.593000000     2.526000000    -3.505000000
H    -5.438000000     2.958000000    -3.380000000
H    -4.568000000     1.848000000    -2.830000000
O    -9.687000000     0.266000000     3.684000000
H   -10.383000000    -0.375000000     3.537000000
H    -8.961000000    -0.040000000     3.140000000
O    -5.128000000    -1.115000000    -2.978000000
H    -4.673000000    -0.785000000    -2.203000000
H    -5.696000000    -1.810000000    -2.644000000
O    -8.113000000     3.361000000     1.139000000
H    -8.718000000     3.983000000     0.735000000
H    -7.761000000     2.858000000     0.405000000
O    -6.255000000    -5.830000000    -3.395000000
H    -6.085000000    -5.013000000    -2.926000000
H    -5.737000000    -6.486000000    -2.928000000
O    -6.854000000    -4.533000000     2.378000000
H    -7.610000000    -4.366000000     1.815000000
H    -6.097000000    -4.405000000     1.807000000
O    -6.123000000    -3.095000000    -1.384000000
H    -5.226000000    -3.374000000    -1.202000000
H    -6.452000000    -2.781000000    -0.542000000
O    -6.578000000     5.736000000    -0.587000000
H    -6.456000000     5.788000000     0.361000000
H    -5.694000000     5.626000000    -0.937000000
O    -7.853000000    -1.134000000    -4.039000000
H    -7.322000000    -0.659000000    -3.401000000
H    -8.094000000    -0.475000000    -4.689000000
O    -6.795000000     4.249000000    -3.591000000
H    -7.369000000     4.575000000    -4.284000000
H    -7.106000000     4.684000000    -2.797000000
O    -8.006000000     1.658000000    -3.365000000
H    -8.340000000     1.296000000    -4.185000000
H    -7.621000000     2.498000000    -3.614000000
