215
-1467.67007
C    -2.302000000     3.399000000     3.784000000
H    -1.587000000     4.196000000     3.595000000
C    -1.846000000     2.104000000     4.024000000
C    -2.721000000     1.014000000     3.983000000
H    -2.340000000    -0.002000000     4.047000000
C    -0.386000000     1.793000000     4.029000000
O     0.421000000     3.027000000     4.224000000
H    -0.149000000     1.505000000     2.994000000
O    -0.013000000     0.780000000     4.960000000
C     0.842000000    -0.168000000     4.488000000
C     0.283000000    -1.344000000     3.905000000
H    -0.753000000    -1.605000000     4.102000000
C     1.151000000    -2.350000000     3.455000000
O     0.544000000    -3.484000000     2.935000000
C     2.510000000    -2.046000000     3.319000000
C     3.424000000    -3.119000000     2.749000000
H     4.428000000    -2.938000000     3.140000000
C     3.457000000    -3.178000000     1.233000000
C     4.530000000    -2.514000000     0.575000000
H     5.268000000    -1.981000000     1.171000000
H     3.016000000    -4.074000000     3.085000000
C     3.055000000    -0.785000000     3.763000000
H     4.117000000    -0.621000000     3.594000000
C     2.145000000     0.139000000     4.335000000
C     2.715000000     1.483000000     4.731000000
H     3.760000000     1.419000000     5.044000000
H     2.153000000     1.932000000     5.552000000
C     2.636000000     2.519000000     3.566000000
C     3.632000000     2.460000000     2.602000000
H     4.441000000     1.735000000     2.627000000
C     1.458000000     3.237000000     3.361000000
C     1.316000000     3.952000000     2.165000000
H     0.311000000     4.293000000     1.928000000
C     2.325000000     4.022000000     1.274000000
O     2.141000000     4.713000000     0.111000000
C     1.675000000     3.858000000    -1.005000000
C     0.353000000     4.313000000    -1.484000000
C    -0.178000000     3.692000000    -2.573000000
H     0.359000000     2.908000000    -3.102000000
C    -0.414000000     5.312000000    -0.848000000
H    -0.027000000     5.932000000    -0.043000000
O     2.741000000     3.638000000    -1.966000000
H     1.459000000     2.890000000    -0.529000000
C     3.526000000     3.241000000     1.471000000
C     4.569000000     3.137000000     0.367000000
H     5.510000000     2.782000000     0.793000000
H     4.756000000     4.115000000    -0.082000000
C     4.187000000     2.083000000    -0.728000000
C     4.726000000     0.790000000    -0.640000000
H     5.420000000     0.552000000     0.162000000
C     3.376000000     2.431000000    -1.835000000
C     3.167000000     1.551000000    -2.913000000
H     2.691000000     1.951000000    -3.805000000
C     3.712000000     0.288000000    -2.792000000
O     3.430000000    -0.660000000    -3.789000000
C     2.546000000    -1.717000000    -3.376000000
C     1.535000000    -2.103000000    -4.479000000
C     0.861000000    -1.166000000    -5.248000000
H     1.246000000    -0.155000000    -5.362000000
C     1.142000000    -3.454000000    -4.623000000
H     1.716000000    -4.296000000    -4.244000000
O     3.304000000    -2.818000000    -2.876000000
H     1.986000000    -1.396000000    -2.485000000
C     4.492000000    -0.123000000    -1.679000000
C     5.245000000    -1.393000000    -1.615000000
H     6.178000000    -1.270000000    -1.062000000
H     5.539000000    -1.840000000    -2.567000000
C     4.433000000    -2.383000000    -0.851000000
C     3.457000000    -3.020000000    -1.587000000
C     2.568000000    -3.850000000    -0.913000000
H     1.839000000    -4.408000000    -1.495000000
C     2.583000000    -3.904000000     0.473000000
O     1.462000000    -4.512000000     1.056000000
C     0.308000000    -3.740000000     1.559000000
H     0.271000000    -2.790000000     1.005000000
C    -0.996000000    -4.433000000     1.328000000
C    -2.098000000    -4.192000000     2.161000000
H    -1.990000000    -3.716000000     3.132000000
C    -1.243000000    -5.075000000     0.080000000
H    -0.453000000    -5.081000000    -0.668000000
C    -2.577000000    -5.348000000    -0.369000000
O    -2.834000000    -5.969000000    -1.592000000
C    -3.586000000    -5.092000000     0.520000000
H    -4.588000000    -5.323000000     0.169000000
C    -3.387000000    -4.494000000     1.749000000
O    -4.418000000    -4.329000000     2.589000000
C    -4.484000000    -3.345000000     3.534000000
C    -4.568000000    -2.014000000     3.115000000
H    -4.687000000    -1.790000000     2.058000000
C    -4.608000000    -3.712000000     4.891000000
H    -4.630000000    -4.771000000     5.135000000
C    -4.747000000    -2.670000000     5.829000000
H    -4.790000000    -2.893000000     6.892000000
C    -4.925000000    -1.357000000     5.375000000
H    -5.085000000    -0.565000000     6.103000000
C    -4.813000000    -1.020000000     4.023000000
O    -5.013000000     0.305000000     3.695000000
C    -4.095000000     1.325000000     3.941000000
C    -4.568000000     2.613000000     3.823000000
H    -5.639000000     2.786000000     3.768000000
C    -3.665000000     3.672000000     3.645000000
O    -4.093000000     4.925000000     3.544000000
C    -3.578000000     5.914000000     2.741000000
C    -3.246000000     5.615000000     1.422000000
H    -3.444000000     4.667000000     0.928000000
C    -3.389000000     7.193000000     3.321000000
H    -3.490000000     7.402000000     4.383000000
C    -2.914000000     8.179000000     2.512000000
H    -2.691000000     9.169000000     2.903000000
C    -2.471000000     7.881000000     1.211000000
H    -1.915000000     8.616000000     0.636000000
C    -2.663000000     6.651000000     0.633000000
O    -2.553000000     6.505000000    -0.713000000
C    -1.739000000     5.602000000    -1.269000000
C    -2.235000000     4.900000000    -2.379000000
H    -3.256000000     5.021000000    -2.732000000
C    -1.467000000     3.941000000    -2.948000000
O    -1.960000000     3.359000000    -4.086000000
C    -1.324000000     2.808000000    -5.152000000
C    -1.676000000     1.557000000    -5.573000000
H    -2.561000000     1.140000000    -5.099000000
C    -0.236000000     3.435000000    -5.774000000
H    -0.024000000     4.456000000    -5.467000000
C     0.458000000     2.807000000    -6.769000000
H     1.307000000     3.295000000    -7.240000000
C     0.135000000     1.514000000    -7.197000000
H     0.675000000     1.085000000    -8.037000000
C    -0.925000000     0.836000000    -6.501000000
O    -1.033000000    -0.539000000    -6.642000000
C    -0.266000000    -1.460000000    -6.011000000
C    -0.686000000    -2.832000000    -6.118000000
H    -1.496000000    -3.094000000    -6.793000000
C     0.052000000    -3.791000000    -5.463000000
O    -0.462000000    -5.051000000    -5.620000000
C    -0.693000000    -5.892000000    -4.542000000
C    -0.008000000    -7.093000000    -4.456000000
H     0.714000000    -7.382000000    -5.216000000
C    -0.240000000    -7.890000000    -3.343000000
H     0.329000000    -8.809000000    -3.227000000
C    -1.182000000    -7.522000000    -2.338000000
H    -1.363000000    -8.102000000    -1.437000000
C    -1.895000000    -6.354000000    -2.516000000
C    -1.612000000    -5.528000000    -3.597000000
H    -2.154000000    -4.591000000    -3.697000000
C    -1.585000000    -1.643000000    -1.766000000
H    -1.794000000    -2.475000000    -2.434000000
C    -0.328000000    -1.530000000    -1.156000000
H     0.439000000    -2.285000000    -1.309000000
C    -0.050000000    -0.433000000    -0.337000000
H     0.943000000    -0.404000000     0.064000000
C    -0.987000000     0.614000000    -0.130000000
H    -0.765000000     1.531000000     0.409000000
C    -2.279000000     0.415000000    -0.795000000
H    -3.051000000     1.180000000    -0.788000000
C    -2.530000000    -0.620000000    -1.667000000
C    -3.733000000    -0.676000000    -2.570000000
O    -4.607000000     0.135000000    -2.456000000
O    -3.778000000    -1.573000000    -3.404000000
O    -6.521000000     1.081000000    -0.721000000
H    -7.195000000     1.489000000    -1.264000000
H    -5.963000000     0.614000000    -1.343000000
O    -9.896000000     0.221000000    -3.876000000
H    -9.977000000     0.888000000    -4.558000000
H    -9.034000000    -0.168000000    -4.023000000
O    -7.383000000    -1.384000000     0.635000000
H    -6.941000000    -0.546000000     0.771000000
H    -8.045000000    -1.201000000    -0.031000000
O    -5.994000000     4.184000000    -5.424000000
H    -6.174000000     3.327000000    -5.812000000
H    -5.423000000     3.995000000    -4.680000000
O    -5.825000000     5.557000000    -2.287000000
H    -6.453000000     5.357000000    -1.592000000
H    -5.391000000     4.722000000    -2.465000000
O    -7.224000000     1.484000000     2.206000000
H    -6.572000000     1.073000000     2.774000000
H    -6.785000000     1.569000000     1.359000000
O    -8.082000000    -0.092000000    -6.368000000
H    -7.477000000    -0.183000000    -5.632000000
H    -7.705000000     0.607000000    -6.903000000
O    -3.233000000    -2.166000000    -8.253000000
H    -4.144000000    -2.373000000    -8.044000000
H    -2.745000000    -2.947000000    -7.994000000
O    -4.115000000    -0.749000000    -5.871000000
H    -4.080000000    -1.224000000    -5.041000000
H    -3.353000000    -1.062000000    -6.358000000
O    -6.762000000    -0.769000000    -4.031000000
H    -5.859000000    -0.673000000    -3.730000000
H    -6.868000000    -1.709000000    -4.175000000
O    -4.533000000    -4.095000000    -3.334000000
H    -4.163000000    -3.252000000    -3.596000000
H    -4.660000000    -4.019000000    -2.389000000
O    -4.931000000     2.947000000    -2.500000000
H    -5.005000000     2.893000000    -1.547000000
H    -4.873000000     2.036000000    -2.788000000
O    -6.975000000    -3.539000000    -4.866000000
H    -7.442000000    -4.033000000    -4.192000000
H    -6.074000000    -3.491000000    -4.547000000
O    -5.453000000     1.461000000    -6.439000000
H    -5.126000000     0.669000000    -6.012000000
H    -4.670000000     1.881000000    -6.797000000
O    -6.767000000     4.112000000    -0.281000000
H    -6.664000000     3.257000000    -0.699000000
H    -7.697000000     4.160000000    -0.060000000
O    -7.637000000    -4.491000000    -2.217000000
H    -7.636000000    -5.398000000    -1.912000000
H    -6.908000000    -4.081000000    -1.752000000
O    -5.582000000    -2.922000000    -0.847000000
H    -6.221000000    -2.586000000    -0.219000000
H    -5.328000000    -2.157000000    -1.363000000
O    -3.483000000     3.262000000    -7.529000000
H    -2.990000000     2.962000000    -6.765000000
H    -2.854000000     3.779000000    -8.032000000
O    -4.973000000    -7.045000000    -3.584000000
H    -4.824000000    -6.100000000    -3.558000000
H    -4.108000000    -7.419000000    -3.757000000
