215
-1451.38213
C     3.903000000    -0.788000000    -3.086000000
H     3.441000000    -1.771000000    -3.081000000
C     4.476000000    -0.362000000    -1.854000000
C     5.070000000     0.853000000    -1.838000000
H     5.410000000     1.251000000    -0.885000000
C     4.285000000    -1.111000000    -0.544000000
O     4.377000000    -2.538000000    -0.608000000
H     3.213000000    -0.894000000    -0.425000000
O     5.021000000    -0.608000000     0.669000000
C     4.376000000    -0.471000000     1.905000000
C     3.980000000     0.847000000     2.158000000
H     4.338000000     1.674000000     1.551000000
C     3.219000000     1.108000000     3.277000000
O     2.752000000     2.428000000     3.406000000
C     2.712000000     0.044000000     4.096000000
C     1.826000000     0.269000000     5.261000000
H     2.008000000    -0.396000000     6.107000000
C     0.316000000     0.285000000     4.950000000
C    -0.531000000    -0.801000000     5.090000000
H    -0.037000000    -1.726000000     5.378000000
H     2.042000000     1.243000000     5.706000000
C     3.027000000    -1.277000000     3.818000000
H     2.730000000    -2.086000000     4.480000000
C     3.883000000    -1.478000000     2.717000000
C     4.174000000    -2.950000000     2.339000000
H     4.093000000    -3.567000000     3.237000000
H     5.239000000    -3.057000000     2.120000000
C     3.219000000    -3.507000000     1.279000000
C     2.164000000    -4.262000000     1.772000000
H     1.988000000    -4.465000000     2.826000000
C     3.362000000    -3.296000000    -0.078000000
C     2.400000000    -3.799000000    -1.009000000
H     2.648000000    -3.775000000    -2.067000000
C     1.293000000    -4.449000000    -0.458000000
O     0.301000000    -4.680000000    -1.365000000
C    -0.962000000    -3.865000000    -1.367000000
C    -1.529000000    -3.731000000    -2.818000000
C    -2.886000000    -3.497000000    -3.060000000
H    -3.653000000    -3.642000000    -2.303000000
C    -0.678000000    -3.525000000    -3.898000000
H     0.367000000    -3.732000000    -3.681000000
O    -1.921000000    -4.470000000    -0.506000000
H    -0.811000000    -2.834000000    -1.013000000
C     1.167000000    -4.680000000     0.865000000
C    -0.082000000    -5.357000000     1.469000000
H     0.323000000    -5.848000000     2.356000000
H    -0.525000000    -6.114000000     0.819000000
C    -1.160000000    -4.327000000     1.799000000
C    -1.301000000    -3.682000000     3.090000000
H    -0.579000000    -3.776000000     3.897000000
C    -2.051000000    -3.968000000     0.778000000
C    -3.137000000    -3.124000000     1.032000000
H    -3.746000000    -2.875000000     0.167000000
C    -3.188000000    -2.428000000     2.233000000
O    -4.078000000    -1.362000000     2.249000000
C    -3.587000000    -0.046000000     2.163000000
C    -4.506000000     0.784000000     1.304000000
C    -4.916000000     0.335000000     0.038000000
H    -4.643000000    -0.672000000    -0.265000000
C    -4.818000000     2.127000000     1.716000000
H    -4.316000000     2.612000000     2.550000000
O    -3.543000000     0.416000000     3.536000000
H    -2.566000000     0.096000000     1.778000000
C    -2.333000000    -2.743000000     3.290000000
C    -2.581000000    -2.130000000     4.645000000
H    -2.245000000    -2.807000000     5.433000000
H    -3.654000000    -1.987000000     4.787000000
C    -1.821000000    -0.812000000     4.671000000
C    -2.383000000     0.391000000     4.218000000
C    -1.644000000     1.549000000     4.162000000
H    -2.036000000     2.436000000     3.671000000
C    -0.254000000     1.482000000     4.487000000
O     0.502000000     2.600000000     4.298000000
C     1.374000000     2.647000000     3.130000000
H     1.003000000     1.769000000     2.580000000
C     1.309000000     3.871000000     2.280000000
C     2.405000000     4.316000000     1.510000000
H     3.422000000     3.934000000     1.519000000
C     0.068000000     4.485000000     2.094000000
H    -0.823000000     4.131000000     2.606000000
C    -0.059000000     5.583000000     1.274000000
O    -1.235000000     6.252000000     0.993000000
C     1.055000000     6.092000000     0.627000000
H     0.909000000     6.795000000    -0.189000000
C     2.276000000     5.452000000     0.656000000
O     3.219000000     5.787000000    -0.364000000
C     4.395000000     5.172000000    -0.545000000
C     4.515000000     4.178000000    -1.525000000
H     3.621000000     3.702000000    -1.920000000
C     5.539000000     5.699000000     0.018000000
H     5.613000000     6.590000000     0.636000000
C     6.801000000     5.150000000    -0.374000000
H     7.711000000     5.439000000     0.146000000
C     6.888000000     4.209000000    -1.395000000
H     7.878000000     3.930000000    -1.746000000
C     5.751000000     3.781000000    -2.054000000
O     5.803000000     2.806000000    -3.078000000
C     5.202000000     1.592000000    -3.028000000
C     4.768000000     1.093000000    -4.231000000
H     4.911000000     1.708000000    -5.116000000
C     4.088000000    -0.094000000    -4.284000000
O     3.571000000    -0.490000000    -5.483000000
C     3.030000000    -1.755000000    -5.881000000
C     1.644000000    -2.019000000    -5.845000000
H     0.951000000    -1.315000000    -5.391000000
C     3.846000000    -2.716000000    -6.435000000
H     4.914000000    -2.573000000    -6.574000000
C     3.255000000    -3.901000000    -6.849000000
H     3.815000000    -4.708000000    -7.316000000
C     1.876000000    -4.153000000    -6.862000000
H     1.521000000    -5.114000000    -7.225000000
C     1.088000000    -3.207000000    -6.349000000
O    -0.307000000    -3.329000000    -6.325000000
C    -1.173000000    -3.275000000    -5.191000000
C    -2.512000000    -3.113000000    -5.384000000
H    -2.898000000    -2.906000000    -6.378000000
C    -3.378000000    -3.131000000    -4.303000000
O    -4.729000000    -3.014000000    -4.464000000
C    -5.580000000    -2.428000000    -3.576000000
C    -5.392000000    -1.099000000    -3.241000000
H    -4.550000000    -0.519000000    -3.611000000
C    -6.627000000    -3.176000000    -2.938000000
H    -6.601000000    -4.256000000    -3.051000000
C    -7.388000000    -2.512000000    -1.951000000
H    -8.092000000    -3.067000000    -1.336000000
C    -7.300000000    -1.122000000    -1.830000000
H    -7.876000000    -0.672000000    -1.026000000
C    -6.273000000    -0.452000000    -2.372000000
O    -6.015000000     0.839000000    -2.023000000
C    -5.604000000     1.213000000    -0.794000000
C    -5.923000000     2.506000000    -0.418000000
H    -6.519000000     3.107000000    -1.100000000
C    -5.398000000     2.982000000     0.809000000
O    -5.631000000     4.228000000     1.173000000
C    -4.596000000     5.034000000     1.666000000
C    -4.853000000     5.713000000     2.841000000
H    -5.851000000     5.691000000     3.272000000
C    -3.924000000     6.617000000     3.371000000
H    -4.159000000     7.176000000     4.273000000
C    -2.751000000     6.783000000     2.749000000
H    -1.958000000     7.376000000     3.198000000
C    -2.481000000     6.049000000     1.538000000
C    -3.400000000     5.217000000     0.983000000
H    -3.167000000     4.772000000     0.019000000
C    -1.011000000     0.524000000    -2.645000000
H    -1.113000000     0.377000000    -3.717000000
C    -0.385000000    -0.489000000    -1.884000000
H     0.143000000    -1.313000000    -2.358000000
C    -0.136000000    -0.320000000    -0.523000000
H     0.348000000    -1.113000000     0.182000000
C    -0.606000000     0.842000000     0.071000000
H    -0.485000000     0.938000000     1.147000000
C    -1.393000000     1.724000000    -0.638000000
H    -1.867000000     2.537000000    -0.094000000
C    -1.656000000     1.594000000    -2.019000000
C    -2.460000000     2.605000000    -2.703000000
O    -2.826000000     3.595000000    -2.087000000
O    -2.757000000     2.485000000    -3.925000000
O     2.866000000     5.923000000    -3.380000000
H     2.675000000     4.994000000    -3.513000000
H     2.535000000     6.112000000    -2.502000000
O    -3.822000000     6.292000000    -5.223000000
H    -4.184000000     7.016000000    -5.734000000
H    -3.191000000     5.876000000    -5.811000000
O    -1.902000000    -0.487000000    -8.380000000
H    -2.558000000    -0.465000000    -9.076000000
H    -2.289000000     0.026000000    -7.670000000
O    -3.570000000     7.806000000    -1.295000000
H    -4.244000000     7.132000000    -1.378000000
H    -2.758000000     7.365000000    -1.547000000
O    -6.664000000     7.443000000    -0.367000000
H    -5.973000000     6.782000000    -0.392000000
H    -6.906000000     7.571000000    -1.285000000
O     0.175000000     5.570000000    -5.014000000
H     0.088000000     5.956000000    -4.143000000
H     0.333000000     6.316000000    -5.593000000
O    -6.945000000     4.140000000    -6.888000000
H    -7.119000000     3.220000000    -7.085000000
H    -5.998000000     4.182000000    -6.755000000
O    -4.729000000     5.488000000    -1.640000000
H    -5.170000000     5.457000000    -2.489000000
H    -4.096000000     4.771000000    -1.673000000
O    -2.833000000     0.864000000    -6.366000000
H    -2.736000000     1.497000000    -5.655000000
H    -3.462000000     0.224000000    -6.033000000
O    -0.711000000     3.288000000    -5.547000000
H    -0.460000000     4.130000000    -5.167000000
H    -1.339000000     2.922000000    -4.924000000
O    -6.083000000    -0.646000000    -8.126000000
H    -5.665000000    -0.201000000    -7.388000000
H    -7.021000000    -0.563000000    -7.954000000
O    -1.774000000     5.978000000    -2.537000000
H    -2.230000000     6.250000000    -3.334000000
H    -2.087000000     5.089000000    -2.373000000
O    -1.171000000     4.044000000    -8.330000000
H    -0.522000000     3.551000000    -8.832000000
H    -1.274000000     3.547000000    -7.519000000
O     1.975000000     3.485000000    -3.851000000
H     1.203000000     2.943000000    -3.692000000
H     1.768000000     3.968000000    -4.651000000
O    -7.550000000     2.501000000    -4.507000000
H    -6.894000000     2.593000000    -3.816000000
H    -7.786000000     3.401000000    -4.734000000
O    -5.602000000     0.641000000    -5.489000000
H    -6.512000000     0.822000000    -5.253000000
H    -5.104000000     1.351000000    -5.083000000
O     1.169000000     1.745000000    -7.060000000
H     1.854000000     2.408000000    -7.138000000
H     0.405000000     2.225000000    -6.740000000
O    -5.087000000     4.320000000    -4.113000000
H    -4.364000000     3.696000000    -4.050000000
H    -4.686000000     5.119000000    -4.455000000
O    -4.209000000     3.152000000    -7.813000000
H    -3.905000000     3.287000000    -8.711000000
H    -3.587000000     2.527000000    -7.441000000
