215
-1467.75479
C    -3.462000000     1.848000000     4.223000000
H    -2.669000000     2.564000000     4.421000000
C    -3.068000000     0.502000000     4.135000000
C    -4.093000000    -0.535000000     4.069000000
H    -3.872000000    -1.596000000     4.144000000
C    -1.593000000     0.116000000     4.094000000
O    -0.790000000     1.100000000     4.838000000
H    -1.260000000     0.180000000     3.047000000
O    -1.489000000    -1.230000000     4.616000000
C    -0.556000000    -2.074000000     4.215000000
C    -0.962000000    -3.083000000     3.322000000
H    -2.014000000    -3.221000000     3.088000000
C     0.012000000    -3.836000000     2.724000000
O    -0.407000000    -4.569000000     1.665000000
C     1.397000000    -3.570000000     2.884000000
C     2.507000000    -4.403000000     2.221000000
H     3.379000000    -4.534000000     2.866000000
C     2.925000000    -3.880000000     0.875000000
C     4.063000000    -3.096000000     0.795000000
H     4.711000000    -2.984000000     1.660000000
H     2.023000000    -5.360000000     2.016000000
C     1.812000000    -2.616000000     3.739000000
H     2.878000000    -2.533000000     3.932000000
C     0.822000000    -1.898000000     4.440000000
C     1.227000000    -0.856000000     5.416000000
H     2.251000000    -1.076000000     5.726000000
H     0.629000000    -0.773000000     6.325000000
C     1.456000000     0.460000000     4.598000000
C     2.716000000     0.762000000     3.986000000
H     3.582000000     0.123000000     4.143000000
C     0.434000000     1.384000000     4.386000000
C     0.668000000     2.529000000     3.602000000
H    -0.131000000     3.204000000     3.306000000
C     1.924000000     2.822000000     3.026000000
O     1.993000000     3.898000000     2.134000000
C     2.000000000     3.527000000     0.738000000
C     0.943000000     4.265000000    -0.053000000
C     1.241000000     4.710000000    -1.321000000
H     2.290000000     4.722000000    -1.603000000
C    -0.397000000     4.313000000     0.479000000
H    -0.655000000     3.938000000     1.466000000
O     3.372000000     3.636000000     0.294000000
H     1.763000000     2.453000000     0.737000000
C     2.928000000     1.907000000     3.205000000
C     4.319000000     2.098000000     2.652000000
H     5.150000000     1.773000000     3.281000000
H     4.530000000     3.167000000     2.583000000
C     4.460000000     1.652000000     1.187000000
C     4.954000000     0.385000000     0.982000000
H     5.193000000    -0.274000000     1.813000000
C     4.061000000     2.441000000     0.144000000
C     4.056000000     1.926000000    -1.118000000
H     3.478000000     2.498000000    -1.840000000
C     4.501000000     0.651000000    -1.334000000
O     4.234000000     0.192000000    -2.628000000
C     3.159000000    -0.743000000    -2.824000000
C     2.455000000    -0.312000000    -4.179000000
C     2.780000000     0.902000000    -4.803000000
H     3.561000000     1.575000000    -4.459000000
C     1.422000000    -1.090000000    -4.722000000
H     1.200000000    -2.107000000    -4.410000000
O     3.750000000    -1.978000000    -2.759000000
H     2.510000000    -0.622000000    -1.944000000
C     4.947000000    -0.168000000    -0.288000000
C     5.515000000    -1.552000000    -0.584000000
H     6.236000000    -1.739000000     0.214000000
H     6.028000000    -1.515000000    -1.547000000
C     4.374000000    -2.555000000    -0.439000000
C     3.549000000    -2.732000000    -1.566000000
C     2.336000000    -3.461000000    -1.485000000
H     1.667000000    -3.544000000    -2.337000000
C     2.097000000    -4.096000000    -0.273000000
O     0.917000000    -4.819000000    -0.255000000
C    -0.197000000    -4.172000000     0.279000000
H     0.018000000    -3.097000000     0.373000000
C    -1.484000000    -4.356000000    -0.482000000
C    -2.794000000    -3.830000000    -0.072000000
H    -2.815000000    -3.522000000     0.970000000
C    -1.483000000    -4.675000000    -1.815000000
H    -0.600000000    -5.105000000    -2.283000000
C    -2.638000000    -4.449000000    -2.656000000
O    -2.603000000    -4.983000000    -3.925000000
C    -3.839000000    -3.895000000    -2.183000000
H    -4.678000000    -3.865000000    -2.874000000
C    -3.963000000    -3.645000000    -0.853000000
O    -5.103000000    -3.103000000    -0.390000000
C    -5.589000000    -3.224000000     0.917000000
C    -5.803000000    -2.035000000     1.705000000
H    -5.449000000    -1.099000000     1.282000000
C    -5.845000000    -4.515000000     1.458000000
H    -5.739000000    -5.438000000     0.894000000
C    -6.409000000    -4.557000000     2.705000000
H    -6.719000000    -5.500000000     3.148000000
C    -6.565000000    -3.377000000     3.504000000
H    -6.803000000    -3.429000000     4.564000000
C    -6.287000000    -2.113000000     3.034000000
O    -6.393000000    -0.960000000     3.847000000
C    -5.384000000    -0.068000000     3.954000000
C    -5.766000000     1.327000000     3.947000000
H    -6.824000000     1.497000000     3.769000000
C    -4.754000000     2.251000000     4.054000000
O    -5.046000000     3.585000000     3.935000000
C    -4.164000000     4.435000000     3.359000000
C    -3.942000000     4.345000000     1.964000000
H    -4.447000000     3.530000000     1.453000000
C    -3.679000000     5.521000000     4.106000000
H    -4.004000000     5.711000000     5.125000000
C    -2.820000000     6.396000000     3.509000000
H    -2.434000000     7.271000000     4.024000000
C    -2.384000000     6.211000000     2.166000000
H    -1.697000000     6.839000000     1.605000000
C    -2.993000000     5.200000000     1.415000000
O    -2.695000000     4.942000000     0.083000000
C    -1.391000000     4.864000000    -0.312000000
C    -1.045000000     5.280000000    -1.630000000
H    -1.823000000     5.719000000    -2.250000000
C     0.256000000     5.219000000    -2.165000000
O     0.636000000     5.842000000    -3.332000000
C     1.698000000     5.344000000    -4.098000000
C     1.438000000     4.191000000    -4.807000000
H     0.480000000     3.677000000    -4.783000000
C     2.945000000     5.953000000    -4.177000000
H     3.091000000     6.863000000    -3.600000000
C     3.930000000     5.388000000    -4.966000000
H     4.940000000     5.789000000    -4.945000000
C     3.710000000     4.242000000    -5.691000000
H     4.543000000     3.893000000    -6.296000000
C     2.479000000     3.668000000    -5.572000000
O     2.249000000     2.525000000    -6.340000000
C     1.911000000     1.391000000    -5.775000000
C     0.867000000     0.577000000    -6.285000000
H     0.086000000     0.937000000    -6.950000000
C     0.659000000    -0.677000000    -5.804000000
O    -0.436000000    -1.369000000    -6.317000000
C    -0.593000000    -2.695000000    -6.033000000
C     0.246000000    -3.637000000    -6.645000000
H     1.108000000    -3.275000000    -7.199000000
C     0.026000000    -4.998000000    -6.433000000
H     0.592000000    -5.746000000    -6.982000000
C    -0.991000000    -5.469000000    -5.641000000
H    -1.208000000    -6.511000000    -5.422000000
C    -1.743000000    -4.534000000    -4.908000000
C    -1.559000000    -3.144000000    -5.182000000
H    -2.284000000    -2.495000000    -4.697000000
C    -0.599000000     0.624000000    -2.338000000
H    -0.309000000     0.971000000    -3.327000000
C     0.395000000     0.514000000    -1.362000000
H     1.422000000     0.865000000    -1.419000000
C     0.087000000    -0.047000000    -0.106000000
H     0.860000000    -0.037000000     0.699000000
C    -1.213000000    -0.446000000     0.118000000
H    -1.450000000    -0.822000000     1.110000000
C    -2.237000000    -0.316000000    -0.850000000
H    -3.262000000    -0.613000000    -0.643000000
C    -1.895000000     0.143000000    -2.089000000
C    -2.952000000     0.349000000    -3.130000000
O    -3.974000000    -0.298000000    -3.033000000
O    -2.777000000     1.014000000    -4.115000000
O    -4.468000000     2.597000000    -1.341000000
H    -5.390000000     2.342000000    -1.375000000
H    -3.990000000     1.767000000    -1.325000000
O    -1.757000000     2.684000000    -6.053000000
H    -1.590000000     3.465000000    -5.525000000
H    -2.054000000     2.028000000    -5.422000000
O    -1.477000000     5.324000000    -5.108000000
H    -2.325000000     5.677000000    -4.838000000
H    -0.857000000     5.674000000    -4.468000000
O    -2.179000000     4.795000000    -8.149000000
H    -2.239000000     4.211000000    -8.904000000
H    -1.867000000     4.236000000    -7.437000000
O    -7.924000000     1.563000000     0.662000000
H    -7.280000000     0.941000000     0.322000000
H    -8.278000000     1.991000000    -0.117000000
O    -3.370000000     3.775000000    -3.405000000
H    -3.795000000     3.472000000    -2.603000000
H    -3.137000000     2.972000000    -3.871000000
O    -8.784000000     1.771000000    -1.998000000
H    -8.582000000     2.704000000    -2.063000000
H    -8.388000000     1.385000000    -2.779000000
O    -4.754000000     5.421000000    -4.966000000
H    -4.265000000     4.953000000    -4.289000000
H    -4.958000000     6.269000000    -4.571000000
O    -7.987000000     4.884000000    -2.267000000
H    -7.143000000     5.015000000    -1.836000000
H    -8.619000000     5.320000000    -1.694000000
O    -7.992000000    -2.428000000    -2.330000000
H    -7.675000000    -2.669000000    -3.201000000
H    -7.983000000    -3.248000000    -1.836000000
O    -5.117000000     1.506000000    -5.416000000
H    -4.851000000     2.422000000    -5.495000000
H    -4.444000000     1.108000000    -4.864000000
O    -5.391000000     5.544000000    -1.541000000
H    -5.088000000     6.157000000    -0.871000000
H    -4.768000000     4.818000000    -1.501000000
O    -5.933000000    -0.061000000    -1.310000000
H    -6.275000000    -0.948000000    -1.415000000
H    -5.257000000     0.016000000    -1.984000000
O    -5.448000000     0.179000000    -8.427000000
H    -5.505000000     0.491000000    -7.524000000
H    -4.520000000     0.261000000    -8.651000000
O    -4.655000000    -2.954000000    -6.738000000
H    -4.979000000    -2.398000000    -6.029000000
H    -4.636000000    -3.834000000    -6.363000000
O    -2.512000000    -0.079000000    -7.714000000
H    -2.087000000    -0.692000000    -7.114000000
H    -2.658000000     0.708000000    -7.190000000
O    -7.404000000     0.813000000    -4.079000000
H    -8.131000000     0.730000000    -4.696000000
H    -6.649000000     1.031000000    -4.625000000
O    -3.164000000    -2.272000000    -9.047000000
H    -3.146000000    -1.380000000    -8.700000000
H    -3.862000000    -2.705000000    -8.556000000
O    -5.738000000    -1.830000000    -4.396000000
H    -6.410000000    -1.149000000    -4.378000000
H    -5.019000000    -1.473000000    -3.875000000
