215
-1450.92807
C    -2.614000000     1.985000000     3.626000000
H    -1.764000000     2.623000000     3.856000000
C    -2.478000000     0.604000000     3.716000000
C    -3.598000000    -0.260000000     3.658000000
H    -3.557000000    -1.347000000     3.660000000
C    -1.134000000     0.035000000     3.845000000
O    -0.285000000     0.843000000     4.733000000
H    -0.789000000    -0.078000000     2.807000000
O    -1.303000000    -1.314000000     4.347000000
C    -0.439000000    -2.299000000     3.791000000
C    -1.098000000    -3.099000000     2.879000000
H    -2.143000000    -2.935000000     2.628000000
C    -0.446000000    -4.099000000     2.160000000
O    -0.991000000    -4.724000000     1.132000000
C     0.968000000    -4.130000000     2.330000000
C     1.697000000    -5.109000000     1.446000000
H     2.539000000    -5.496000000     2.022000000
C     2.197000000    -4.291000000     0.290000000
C     3.385000000    -3.571000000     0.274000000
H     3.992000000    -3.589000000     1.176000000
H     1.141000000    -5.992000000     1.123000000
C     1.679000000    -3.245000000     3.190000000
H     2.731000000    -3.420000000     3.399000000
C     0.976000000    -2.334000000     3.962000000
C     1.573000000    -1.423000000     4.960000000
H     2.398000000    -1.983000000     5.405000000
H     0.906000000    -1.250000000     5.807000000
C     2.008000000    -0.032000000     4.382000000
C     3.289000000     0.131000000     3.802000000
H     4.053000000    -0.642000000     3.828000000
C     1.006000000     1.031000000     4.348000000
C     1.353000000     2.297000000     3.849000000
H     0.647000000     3.124000000     3.812000000
C     2.612000000     2.407000000     3.248000000
O     2.884000000     3.473000000     2.476000000
C     2.561000000     3.251000000     1.049000000
C     1.682000000     4.430000000     0.610000000
C     1.362000000     4.421000000    -0.774000000
H     1.828000000     3.684000000    -1.423000000
C     0.983000000     5.253000000     1.503000000
H     1.078000000     5.118000000     2.578000000
O     3.892000000     3.193000000     0.418000000
H     2.126000000     2.245000000     0.957000000
C     3.574000000     1.352000000     3.184000000
C     4.939000000     1.559000000     2.493000000
H     5.652000000     0.983000000     3.086000000
H     5.299000000     2.585000000     2.596000000
C     4.888000000     1.090000000     1.116000000
C     5.105000000    -0.245000000     0.788000000
H     5.389000000    -0.918000000     1.593000000
C     4.230000000     1.912000000     0.196000000
C     3.955000000     1.544000000    -1.059000000
H     3.565000000     2.322000000    -1.711000000
C     4.350000000     0.296000000    -1.526000000
O     4.023000000     0.019000000    -2.847000000
C     2.859000000    -0.810000000    -3.092000000
C     2.184000000    -0.332000000    -4.378000000
C     2.184000000     1.045000000    -4.736000000
H     2.833000000     1.749000000    -4.220000000
C     1.528000000    -1.248000000    -5.184000000
H     1.331000000    -2.266000000    -4.856000000
O     3.281000000    -2.174000000    -3.156000000
H     2.335000000    -0.737000000    -2.128000000
C     4.811000000    -0.637000000    -0.577000000
C     5.086000000    -2.073000000    -0.916000000
H     5.809000000    -2.428000000    -0.178000000
H     5.522000000    -2.118000000    -1.916000000
C     3.827000000    -2.946000000    -0.879000000
C     3.032000000    -2.925000000    -2.022000000
C     1.822000000    -3.628000000    -2.002000000
H     1.172000000    -3.660000000    -2.872000000
C     1.459000000    -4.365000000    -0.876000000
O     0.197000000    -4.961000000    -0.854000000
C    -0.891000000    -4.166000000    -0.110000000
H    -0.555000000    -3.122000000    -0.032000000
C    -2.207000000    -4.113000000    -0.797000000
C    -3.441000000    -4.111000000    -0.116000000
H    -3.526000000    -4.389000000     0.931000000
C    -2.199000000    -3.726000000    -2.163000000
H    -1.214000000    -3.568000000    -2.593000000
C    -3.329000000    -3.510000000    -2.888000000
O    -3.349000000    -3.240000000    -4.181000000
C    -4.519000000    -3.490000000    -2.194000000
H    -5.441000000    -3.224000000    -2.704000000
C    -4.577000000    -3.756000000    -0.821000000
O    -5.859000000    -3.759000000    -0.293000000
C    -6.111000000    -3.417000000     0.988000000
C    -5.771000000    -2.144000000     1.508000000
H    -5.230000000    -1.439000000     0.881000000
C    -6.941000000    -4.227000000     1.806000000
H    -7.334000000    -5.138000000     1.362000000
C    -7.386000000    -3.808000000     3.081000000
H    -8.074000000    -4.353000000     3.724000000
C    -6.957000000    -2.549000000     3.589000000
H    -7.342000000    -2.208000000     4.546000000
C    -6.239000000    -1.647000000     2.797000000
O    -6.055000000    -0.360000000     3.303000000
C    -4.893000000     0.319000000     3.497000000
C    -5.011000000     1.757000000     3.380000000
H    -5.957000000     2.243000000     3.157000000
C    -3.911000000     2.583000000     3.425000000
O    -4.145000000     3.911000000     3.455000000
C    -3.101000000     4.828000000     3.617000000
C    -2.448000000     5.456000000     2.581000000
H    -2.649000000     5.137000000     1.561000000
C    -2.811000000     5.215000000     4.897000000
H    -3.437000000     4.738000000     5.647000000
C    -1.874000000     6.225000000     5.181000000
H    -1.716000000     6.591000000     6.192000000
C    -1.203000000     6.793000000     4.136000000
H    -0.429000000     7.533000000     4.324000000
C    -1.499000000     6.420000000     2.815000000
O    -0.662000000     6.983000000     1.895000000
C     0.052000000     6.144000000     0.997000000
C    -0.222000000     6.146000000    -0.383000000
H    -0.791000000     6.920000000    -0.891000000
C     0.477000000     5.333000000    -1.289000000
O     0.228000000     5.417000000    -2.661000000
C     1.158000000     5.106000000    -3.552000000
C     0.885000000     4.122000000    -4.477000000
H    -0.111000000     3.689000000    -4.527000000
C     2.440000000     5.661000000    -3.484000000
H     2.676000000     6.461000000    -2.788000000
C     3.413000000     5.335000000    -4.438000000
H     4.366000000     5.854000000    -4.365000000
C     3.092000000     4.362000000    -5.402000000
H     3.708000000     3.915000000    -6.178000000
C     1.826000000     3.760000000    -5.373000000
O     1.635000000     2.763000000    -6.334000000
C     1.531000000     1.498000000    -5.911000000
C     0.891000000     0.549000000    -6.651000000
H     0.397000000     0.871000000    -7.564000000
C     0.896000000    -0.828000000    -6.322000000
O     0.187000000    -1.622000000    -7.116000000
C    -0.583000000    -2.701000000    -6.636000000
C    -0.193000000    -4.042000000    -6.920000000
H     0.600000000    -4.184000000    -7.649000000
C    -0.923000000    -5.100000000    -6.308000000
H    -0.526000000    -6.109000000    -6.379000000
C    -1.871000000    -4.824000000    -5.323000000
H    -2.231000000    -5.743000000    -4.866000000
C    -2.267000000    -3.537000000    -5.073000000
C    -1.688000000    -2.502000000    -5.826000000
H    -1.925000000    -1.466000000    -5.594000000
C    -0.238000000     1.041000000    -1.947000000
H     0.203000000     1.859000000    -2.511000000
C     0.334000000     0.589000000    -0.783000000
H     1.276000000     0.973000000    -0.400000000
C    -0.289000000    -0.311000000     0.027000000
H     0.173000000    -0.746000000     0.863000000
C    -1.569000000    -0.767000000    -0.353000000
H    -2.122000000    -1.424000000     0.313000000
C    -2.173000000    -0.343000000    -1.563000000
H    -3.205000000    -0.628000000    -1.749000000
C    -1.502000000     0.543000000    -2.365000000
C    -2.194000000     1.170000000    -3.563000000
O    -3.430000000     1.193000000    -3.538000000
O    -1.656000000     1.915000000    -4.377000000
O    -3.379000000     3.425000000    -0.726000000
H    -3.885000000     3.241000000    -1.517000000
H    -2.639000000     2.819000000    -0.768000000
O    -1.314000000     3.252000000    -6.719000000
H    -0.468000000     3.159000000    -7.156000000
H    -1.292000000     2.605000000    -6.014000000
O    -1.015000000     7.692000000    -4.553000000
H    -1.542000000     6.975000000    -4.906000000
H    -0.362000000     7.866000000    -5.231000000
O    -3.403000000     4.005000000    -8.923000000
H    -2.849000000     3.226000000    -8.964000000
H    -3.806000000     4.058000000    -9.789000000
O    -7.557000000     1.467000000     0.057000000
H    -6.741000000     1.335000000    -0.425000000
H    -7.882000000     2.313000000    -0.250000000
O    -2.573000000     4.683000000    -3.576000000
H    -1.690000000     4.865000000    -3.254000000
H    -2.480000000     3.878000000    -4.086000000
O    -2.336000000     5.715000000    -6.173000000
H    -2.811000000     5.452000000    -5.385000000
H    -2.182000000     4.897000000    -6.645000000
O    -8.362000000    -1.089000000    -3.369000000
H    -7.514000000    -0.667000000    -3.504000000
H    -8.462000000    -1.672000000    -4.122000000
O    -6.658000000    -1.033000000    -7.049000000
H    -7.196000000    -0.396000000    -7.520000000
H    -6.189000000    -0.514000000    -6.396000000
O    -4.018000000     1.789000000    -6.129000000
H    -3.475000000     2.531000000    -6.395000000
H    -3.645000000     1.506000000    -5.294000000
O    -5.445000000     4.467000000     0.659000000
H    -5.002000000     4.991000000    -0.008000000
H    -5.075000000     3.589000000     0.558000000
O    -5.429000000     1.171000000    -1.527000000
H    -5.955000000     1.353000000    -2.305000000
H    -4.529000000     1.355000000    -1.798000000
O    -5.141000000     0.943000000    -8.522000000
H    -4.754000000     1.304000000    -7.724000000
H    -4.431000000     0.448000000    -8.930000000
O    -2.664000000    -0.325000000    -9.659000000
H    -1.818000000    -0.075000000    -9.285000000
H    -2.663000000     0.065000000   -10.533000000
O    -6.350000000     3.923000000    -7.674000000
H    -6.256000000     4.231000000    -6.772000000
H    -5.516000000     3.497000000    -7.870000000
O    -5.295000000     5.282000000    -2.538000000
H    -4.353000000     5.280000000    -2.705000000
H    -5.428000000     6.007000000    -1.927000000
O    -6.585000000     2.313000000    -4.120000000
H    -5.719000000     1.983000000    -4.359000000
H    -6.539000000     3.254000000    -4.295000000
O    -5.130000000    -0.825000000    -3.890000000
H    -4.487000000    -1.534000000    -3.910000000
H    -4.605000000    -0.030000000    -3.788000000
O    -6.386000000     4.704000000    -5.038000000
H    -6.993000000     5.335000000    -5.425000000
H    -6.180000000     5.068000000    -4.177000000
