215
-1468.88264
C    -3.041000000     1.853000000     3.353000000
H    -2.301000000     2.634000000     3.508000000
C    -2.729000000     0.511000000     3.546000000
C    -3.759000000    -0.415000000     3.352000000
H    -3.547000000    -1.480000000     3.404000000
C    -1.301000000     0.131000000     3.880000000
O    -0.699000000     1.133000000     4.796000000
H    -0.791000000     0.016000000     2.912000000
O    -1.336000000    -1.057000000     4.589000000
C    -0.415000000    -2.048000000     4.299000000
C    -0.781000000    -3.008000000     3.441000000
H    -1.842000000    -3.151000000     3.252000000
C     0.122000000    -3.824000000     2.693000000
O    -0.396000000    -4.616000000     1.680000000
C     1.500000000    -3.596000000     2.818000000
C     2.558000000    -4.420000000     2.153000000
H     3.494000000    -4.449000000     2.714000000
C     2.880000000    -3.853000000     0.763000000
C     3.925000000    -2.964000000     0.589000000
H     4.499000000    -2.659000000     1.460000000
H     2.298000000    -5.473000000     2.027000000
C     1.980000000    -2.688000000     3.850000000
H     3.022000000    -2.440000000     4.036000000
C     1.013000000    -1.904000000     4.548000000
C     1.572000000    -0.829000000     5.445000000
H     2.556000000    -1.143000000     5.799000000
H     0.951000000    -0.782000000     6.342000000
C     1.614000000     0.465000000     4.638000000
C     2.873000000     0.795000000     4.085000000
H     3.719000000     0.116000000     4.158000000
C     0.582000000     1.421000000     4.510000000
C     0.701000000     2.551000000     3.769000000
H    -0.133000000     3.229000000     3.610000000
C     1.915000000     2.836000000     3.195000000
O     1.936000000     3.928000000     2.416000000
C     1.846000000     3.833000000     0.939000000
C     0.973000000     4.893000000     0.278000000
C     1.141000000     5.102000000    -1.079000000
H     1.980000000     4.671000000    -1.617000000
C     0.020000000     5.559000000     1.059000000
H     0.006000000     5.413000000     2.137000000
O     3.201000000     3.839000000     0.379000000
H     1.485000000     2.805000000     0.782000000
C     3.022000000     1.963000000     3.353000000
C     4.338000000     2.272000000     2.635000000
H     5.057000000     1.623000000     3.140000000
H     4.626000000     3.316000000     2.775000000
C     4.303000000     1.791000000     1.207000000
C     4.867000000     0.494000000     0.827000000
H     5.349000000    -0.113000000     1.589000000
C     3.809000000     2.644000000     0.193000000
C     3.709000000     2.135000000    -1.120000000
H     3.306000000     2.830000000    -1.853000000
C     4.063000000     0.792000000    -1.427000000
O     3.740000000     0.249000000    -2.673000000
C     2.555000000    -0.571000000    -2.732000000
C     1.702000000    -0.179000000    -3.852000000
C     1.697000000     1.047000000    -4.514000000
H     2.395000000     1.818000000    -4.199000000
C     0.852000000    -1.213000000    -4.387000000
H     0.799000000    -2.186000000    -3.905000000
O     3.124000000    -1.904000000    -2.897000000
H     1.923000000    -0.673000000    -1.837000000
C     4.785000000     0.018000000    -0.460000000
C     5.248000000    -1.370000000    -0.783000000
H     6.191000000    -1.617000000    -0.291000000
H     5.550000000    -1.403000000    -1.832000000
C     4.152000000    -2.425000000    -0.667000000
C     3.246000000    -2.674000000    -1.778000000
C     2.186000000    -3.524000000    -1.529000000
H     1.464000000    -3.645000000    -2.333000000
C     2.071000000    -4.177000000    -0.311000000
O     1.033000000    -5.021000000    -0.091000000
C    -0.170000000    -4.357000000     0.288000000
H     0.054000000    -3.295000000     0.109000000
C    -1.362000000    -4.693000000    -0.634000000
C    -2.638000000    -4.328000000    -0.204000000
H    -2.772000000    -3.878000000     0.776000000
C    -1.159000000    -5.203000000    -1.965000000
H    -0.152000000    -5.424000000    -2.309000000
C    -2.237000000    -5.539000000    -2.724000000
O    -2.081000000    -6.064000000    -4.007000000
C    -3.533000000    -5.355000000    -2.204000000
H    -4.389000000    -5.726000000    -2.761000000
C    -3.722000000    -4.717000000    -0.939000000
O    -5.012000000    -4.629000000    -0.448000000
C    -5.343000000    -4.108000000     0.849000000
C    -5.347000000    -2.731000000     1.044000000
H    -5.218000000    -2.085000000     0.179000000
C    -5.420000000    -4.944000000     1.927000000
H    -5.232000000    -6.010000000     1.820000000
C    -5.658000000    -4.429000000     3.189000000
H    -5.920000000    -5.067000000     4.029000000
C    -5.915000000    -3.095000000     3.273000000
H    -6.209000000    -2.631000000     4.211000000
C    -5.771000000    -2.225000000     2.212000000
O    -6.044000000    -0.921000000     2.410000000
C    -5.030000000    -0.002000000     2.904000000
C    -5.306000000     1.339000000     2.753000000
H    -6.224000000     1.681000000     2.283000000
C    -4.330000000     2.249000000     2.889000000
O    -4.651000000     3.547000000     2.717000000
C    -3.841000000     4.600000000     2.925000000
C    -3.301000000     5.316000000     1.876000000
H    -3.403000000     4.858000000     0.896000000
C    -3.554000000     5.073000000     4.230000000
H    -4.131000000     4.585000000     5.011000000
C    -2.835000000     6.182000000     4.493000000
H    -2.763000000     6.506000000     5.528000000
C    -2.312000000     6.905000000     3.440000000
H    -1.588000000     7.689000000     3.648000000
C    -2.515000000     6.469000000     2.162000000
O    -1.768000000     7.131000000     1.142000000
C    -0.854000000     6.414000000     0.393000000
C    -0.810000000     6.530000000    -0.980000000
H    -1.523000000     7.193000000    -1.462000000
C     0.227000000     5.937000000    -1.723000000
O     0.335000000     6.300000000    -3.047000000
C     1.038000000     5.546000000    -4.004000000
C     0.517000000     4.396000000    -4.598000000
H    -0.475000000     4.093000000    -4.273000000
C     2.310000000     6.041000000    -4.379000000
H     2.770000000     6.926000000    -3.947000000
C     3.023000000     5.387000000    -5.377000000
H     4.003000000     5.745000000    -5.681000000
C     2.494000000     4.181000000    -5.924000000
H     3.106000000     3.669000000    -6.662000000
C     1.183000000     3.732000000    -5.580000000
O     0.642000000     2.561000000    -6.088000000
C     0.847000000     1.279000000    -5.571000000
C     0.048000000     0.278000000    -6.123000000
H    -0.652000000     0.551000000    -6.908000000
C     0.024000000    -0.920000000    -5.503000000
O    -0.902000000    -1.908000000    -5.908000000
C    -0.640000000    -3.312000000    -5.786000000
C     0.422000000    -3.948000000    -6.472000000
H     1.124000000    -3.415000000    -7.109000000
C     0.611000000    -5.310000000    -6.420000000
H     1.315000000    -5.828000000    -7.066000000
C    -0.338000000    -6.034000000    -5.651000000
H    -0.311000000    -7.118000000    -5.576000000
C    -1.340000000    -5.389000000    -4.916000000
C    -1.507000000    -4.012000000    -4.990000000
H    -2.290000000    -3.494000000    -4.442000000
C    -0.742000000     1.144000000    -2.018000000
H    -0.429000000     1.760000000    -2.857000000
C     0.028000000     0.939000000    -0.881000000
H     0.948000000     1.501000000    -0.743000000
C    -0.440000000     0.099000000     0.128000000
H     0.126000000    -0.033000000     0.977000000
C    -1.618000000    -0.660000000    -0.070000000
H    -2.027000000    -1.350000000     0.664000000
C    -2.340000000    -0.592000000    -1.263000000
H    -3.139000000    -1.286000000    -1.511000000
C    -1.896000000     0.290000000    -2.241000000
C    -2.699000000     0.435000000    -3.555000000
O    -3.510000000    -0.444000000    -3.903000000
O    -2.492000000     1.435000000    -4.146000000
O    -4.049000000     2.268000000    -0.627000000
H    -4.439000000     1.485000000    -1.016000000
H    -3.338000000     1.935000000    -0.080000000
O    -6.982000000    -3.078000000    -6.758000000
H    -6.608000000    -3.430000000    -5.951000000
H    -7.200000000    -2.170000000    -6.545000000
O    -2.372000000     3.543000000    -6.310000000
H    -2.358000000     2.931000000    -5.574000000
H    -3.257000000     3.907000000    -6.302000000
O     0.446000000     2.324000000    -9.170000000
H     0.393000000     2.229000000    -8.219000000
H    -0.268000000     2.922000000    -9.391000000
O    -2.754000000     3.701000000    -2.778000000
H    -3.284000000     3.342000000    -2.067000000
H    -2.482000000     2.936000000    -3.284000000
O    -6.649000000     3.090000000    -0.074000000
H    -6.558000000     3.972000000    -0.435000000
H    -5.752000000     2.761000000    -0.020000000
O    -4.821000000     5.778000000    -3.556000000
H    -4.053000000     5.298000000    -3.247000000
H    -4.579000000     6.699000000    -3.469000000
O    -4.651000000     1.010000000    -6.132000000
H    -4.003000000     0.655000000    -5.523000000
H    -4.207000000     1.014000000    -6.979000000
O    -2.236000000     4.123000000    -9.260000000
H    -2.202000000     4.075000000    -8.305000000
H    -3.098000000     3.772000000    -9.487000000
O    -7.108000000    -0.185000000    -7.021000000
H    -7.152000000    -0.381000000    -7.957000000
H    -6.220000000     0.146000000    -6.888000000
O    -4.046000000    -2.236000000    -6.911000000
H    -3.812000000    -1.739000000    -6.127000000
H    -5.003000000    -2.217000000    -6.929000000
O    -5.604000000     0.333000000    -2.397000000
H    -4.828000000     0.036000000    -2.872000000
H    -6.158000000     0.730000000    -3.068000000
O    -3.272000000     0.119000000    -8.604000000
H    -3.253000000    -0.672000000    -8.065000000
H    -2.649000000    -0.056000000    -9.308000000
O    -7.750000000     4.075000000    -5.526000000
H    -8.238000000     4.484000000    -4.812000000
H    -7.088000000     3.539000000    -5.088000000
O    -6.157000000    -4.517000000    -4.652000000
H    -5.668000000    -3.831000000    -4.197000000
H    -6.348000000    -5.165000000    -3.974000000
O    -4.553000000     2.364000000    -9.477000000
H    -4.416000000     2.192000000   -10.408000000
H    -4.237000000     1.574000000    -9.038000000
O    -5.774000000     2.877000000    -4.101000000
H    -5.034000000     2.357000000    -4.415000000
H    -5.396000000     3.452000000    -3.435000000
O    -3.657000000    -5.059000000    -7.176000000
H    -3.610000000    -4.122000000    -7.369000000
H    -2.807000000    -5.403000000    -7.452000000
O    -4.885000000    -2.597000000    -3.332000000
H    -5.089000000    -2.417000000    -2.414000000
H    -4.280000000    -1.900000000    -3.584000000
