215
-1429.81683
C    -3.343000000     2.044000000     3.313000000
H    -2.477000000     2.700000000     3.344000000
C    -2.991000000     0.660000000     3.467000000
C    -4.001000000    -0.321000000     3.277000000
H    -3.742000000    -1.372000000     3.376000000
C    -1.547000000     0.252000000     3.766000000
O    -0.918000000     1.243000000     4.625000000
H    -1.071000000     0.259000000     2.774000000
O    -1.517000000    -0.985000000     4.417000000
C    -0.530000000    -1.900000000     4.069000000
C    -0.812000000    -2.968000000     3.299000000
H    -1.875000000    -3.101000000     3.114000000
C     0.124000000    -3.780000000     2.789000000
O    -0.330000000    -4.724000000     1.879000000
C     1.502000000    -3.623000000     3.033000000
C     2.496000000    -4.601000000     2.427000000
H     3.375000000    -4.721000000     3.063000000
C     3.018000000    -4.057000000     1.071000000
C     3.969000000    -3.006000000     1.021000000
H     4.393000000    -2.608000000     1.940000000
H     2.155000000    -5.638000000     2.448000000
C     1.843000000    -2.539000000     3.822000000
H     2.867000000    -2.407000000     4.162000000
C     0.822000000    -1.666000000     4.389000000
C     1.256000000    -0.503000000     5.324000000
H     2.191000000    -0.713000000     5.848000000
H     0.505000000    -0.329000000     6.098000000
C     1.457000000     0.850000000     4.629000000
C     2.740000000     1.270000000     4.225000000
H     3.653000000     0.702000000     4.381000000
C     0.363000000     1.691000000     4.266000000
C     0.522000000     2.862000000     3.486000000
H    -0.317000000     3.485000000     3.186000000
C     1.842000000     3.281000000     3.103000000
O     1.938000000     4.248000000     2.197000000
C     1.859000000     3.854000000     0.762000000
C     0.837000000     4.637000000    -0.061000000
C     0.955000000     4.722000000    -1.451000000
H     1.880000000     4.431000000    -1.943000000
C    -0.286000000     5.256000000     0.571000000
H    -0.374000000     5.148000000     1.649000000
O     3.210000000     3.842000000     0.210000000
H     1.502000000     2.814000000     0.722000000
C     2.923000000     2.445000000     3.454000000
C     4.249000000     2.632000000     2.697000000
H     5.099000000     2.352000000     3.323000000
H     4.398000000     3.706000000     2.574000000
C     4.258000000     1.981000000     1.289000000
C     4.721000000     0.695000000     1.238000000
H     5.007000000     0.115000000     2.112000000
C     3.869000000     2.646000000     0.141000000
C     4.050000000     2.048000000    -1.099000000
H     3.782000000     2.592000000    -2.001000000
C     4.471000000     0.764000000    -1.196000000
O     4.312000000     0.168000000    -2.397000000
C     3.259000000    -0.800000000    -2.623000000
C     2.462000000    -0.627000000    -3.907000000
C     2.491000000     0.581000000    -4.603000000
H     3.261000000     1.289000000    -4.307000000
C     1.461000000    -1.570000000    -4.307000000
H     1.562000000    -2.589000000    -3.942000000
O     3.622000000    -2.160000000    -2.616000000
H     2.431000000    -0.631000000    -1.918000000
C     4.913000000     0.071000000    -0.047000000
C     5.386000000    -1.416000000    -0.118000000
H     6.024000000    -1.656000000     0.736000000
H     6.070000000    -1.438000000    -0.969000000
C     4.308000000    -2.478000000    -0.228000000
C     3.542000000    -2.758000000    -1.378000000
C     2.626000000    -3.769000000    -1.312000000
H     2.049000000    -4.008000000    -2.202000000
C     2.290000000    -4.326000000    -0.092000000
O     1.108000000    -5.034000000     0.077000000
C    -0.101000000    -4.338000000     0.497000000
H     0.070000000    -3.256000000     0.400000000
C    -1.325000000    -4.866000000    -0.308000000
C    -2.620000000    -4.464000000     0.157000000
H    -2.667000000    -3.935000000     1.105000000
C    -1.160000000    -5.480000000    -1.554000000
H    -0.173000000    -5.778000000    -1.897000000
C    -2.247000000    -5.545000000    -2.382000000
O    -2.048000000    -5.996000000    -3.698000000
C    -3.548000000    -5.186000000    -1.901000000
H    -4.438000000    -5.472000000    -2.456000000
C    -3.746000000    -4.694000000    -0.628000000
O    -4.992000000    -4.265000000    -0.268000000
C    -5.336000000    -3.941000000     1.017000000
C    -5.717000000    -2.622000000     1.320000000
H    -5.634000000    -1.914000000     0.499000000
C    -5.520000000    -4.947000000     2.019000000
H    -5.407000000    -6.018000000     1.876000000
C    -5.694000000    -4.465000000     3.332000000
H    -5.740000000    -5.053000000     4.245000000
C    -5.997000000    -3.116000000     3.573000000
H    -6.178000000    -2.715000000     4.567000000
C    -6.105000000    -2.175000000     2.576000000
O    -6.321000000    -0.817000000     2.798000000
C    -5.307000000     0.086000000     3.028000000
C    -5.600000000     1.475000000     3.018000000
H    -6.615000000     1.819000000     2.839000000
C    -4.666000000     2.463000000     3.241000000
O    -4.998000000     3.815000000     3.053000000
C    -4.121000000     4.891000000     2.883000000
C    -3.573000000     5.212000000     1.693000000
H    -3.747000000     4.487000000     0.902000000
C    -4.023000000     5.859000000     3.897000000
H    -4.488000000     5.599000000     4.844000000
C    -3.338000000     7.036000000     3.721000000
H    -3.224000000     7.794000000     4.492000000
C    -2.821000000     7.321000000     2.455000000
H    -2.258000000     8.248000000     2.376000000
C    -2.957000000     6.378000000     1.474000000
O    -2.280000000     6.673000000     0.304000000
C    -1.210000000     5.916000000    -0.190000000
C    -1.077000000     5.918000000    -1.630000000
H    -1.852000000     6.456000000    -2.170000000
C     0.025000000     5.346000000    -2.221000000
O     0.123000000     5.610000000    -3.645000000
C     1.100000000     5.008000000    -4.466000000
C     1.122000000     3.649000000    -4.832000000
H     0.380000000     3.029000000    -4.335000000
C     2.081000000     5.901000000    -5.008000000
H     2.144000000     6.921000000    -4.638000000
C     2.890000000     5.512000000    -6.034000000
H     3.549000000     6.178000000    -6.584000000
C     2.728000000     4.232000000    -6.528000000
H     3.306000000     3.868000000    -7.372000000
C     1.832000000     3.295000000    -5.914000000
O     1.712000000     1.978000000    -6.420000000
C     1.634000000     0.908000000    -5.678000000
C     0.697000000    -0.013000000    -6.002000000
H    -0.013000000     0.249000000    -6.782000000
C     0.555000000    -1.219000000    -5.293000000
O    -0.390000000    -2.039000000    -5.812000000
C    -0.385000000    -3.364000000    -5.666000000
C     0.625000000    -4.086000000    -6.232000000
H     1.314000000    -3.471000000    -6.805000000
C     0.639000000    -5.493000000    -6.277000000
H     1.338000000    -6.098000000    -6.850000000
C    -0.359000000    -6.049000000    -5.422000000
H    -0.404000000    -7.129000000    -5.312000000
C    -1.164000000    -5.277000000    -4.559000000
C    -1.289000000    -3.898000000    -4.735000000
H    -2.079000000    -3.385000000    -4.193000000
C    -0.566000000     0.424000000    -2.143000000
H    -0.003000000     0.914000000    -2.934000000
C     0.006000000     0.127000000    -0.944000000
H     1.010000000     0.461000000    -0.693000000
C    -0.709000000    -0.643000000    -0.018000000
H    -0.264000000    -0.903000000     0.889000000
C    -2.000000000    -1.054000000    -0.328000000
H    -2.586000000    -1.615000000     0.395000000
C    -2.503000000    -0.859000000    -1.608000000
H    -3.458000000    -1.262000000    -1.936000000
C    -1.818000000    -0.063000000    -2.535000000
C    -2.405000000     0.382000000    -3.809000000
O    -3.178000000    -0.289000000    -4.436000000
O    -2.383000000     1.590000000    -4.018000000
O    -3.694000000     1.934000000    -0.175000000
H    -4.328000000     1.455000000    -0.709000000
H    -3.044000000     1.277000000     0.071000000
O    -6.565000000    -1.883000000    -2.359000000
H    -6.413000000    -2.623000000    -1.771000000
H    -6.092000000    -2.112000000    -3.159000000
O    -1.672000000     2.575000000    -6.396000000
H    -1.843000000     2.191000000    -5.536000000
H    -2.266000000     2.113000000    -6.987000000
O    -5.809000000     4.724000000    -5.327000000
H    -6.037000000     3.807000000    -5.173000000
H    -6.480000000     5.219000000    -4.857000000
O     0.055000000     2.662000000    -9.041000000
H     0.045000000     2.652000000    -8.084000000
H    -0.489000000     3.413000000    -9.279000000
O    -7.535000000     1.323000000    -0.053000000
H    -7.152000000     2.199000000    -0.001000000
H    -7.165000000     0.948000000    -0.853000000
O    -3.368000000     3.667000000    -2.350000000
H    -3.713000000     3.152000000    -1.621000000
H    -3.189000000     3.023000000    -3.035000000
O    -5.306000000     5.309000000    -1.315000000
H    -4.526000000     4.872000000    -1.657000000
H    -5.229000000     6.212000000    -1.622000000
O    -4.402000000     0.507000000    -6.841000000
H    -3.923000000     0.078000000    -6.131000000
H    -4.091000000     0.073000000    -7.636000000
O    -6.852000000     1.775000000    -7.423000000
H    -6.643000000     2.514000000    -7.994000000
H    -6.001000000     1.405000000    -7.189000000
O    -2.948000000    -2.762000000    -7.017000000
H    -2.245000000    -2.626000000    -6.382000000
H    -2.783000000    -2.113000000    -7.701000000
O    -5.947000000     0.984000000    -2.222000000
H    -6.212000000     0.119000000    -2.535000000
H    -5.639000000     1.439000000    -3.006000000
O    -3.252000000    -0.729000000    -8.949000000
H    -2.358000000    -0.633000000    -9.279000000
H    -3.683000000    -1.298000000    -9.587000000
O    -8.123000000     3.046000000    -3.060000000
H    -7.337000000     3.087000000    -2.516000000
H    -8.290000000     2.110000000    -3.170000000
O    -5.696000000    -4.944000000    -4.498000000
H    -5.337000000    -4.061000000    -4.412000000
H    -6.337000000    -5.012000000    -3.790000000
O    -3.877000000     2.805000000    -8.931000000
H    -4.442000000     2.981000000    -9.683000000
H    -3.906000000     1.853000000    -8.828000000
O    -1.322000000     5.223000000    -6.594000000
H    -1.502000000     4.306000000    -6.387000000
H    -0.781000000     5.531000000    -5.866000000
O    -4.940000000     2.078000000    -4.666000000
H    -5.040000000     1.776000000    -5.569000000
H    -4.015000000     1.935000000    -4.466000000
O    -5.154000000    -2.252000000    -4.625000000
H    -5.491000000    -2.149000000    -5.515000000
H    -4.639000000    -1.460000000    -4.471000000
