215
-1473.16392
C    -3.425000000     2.070000000     3.501000000
H    -2.693000000     2.839000000     3.733000000
C    -2.967000000     0.763000000     3.326000000
C    -3.865000000    -0.189000000     2.871000000
H    -3.642000000    -1.227000000     2.641000000
C    -1.554000000     0.324000000     3.665000000
O    -0.865000000     1.220000000     4.557000000
H    -1.120000000     0.197000000     2.663000000
O    -1.589000000    -1.043000000     4.292000000
C    -0.558000000    -1.938000000     4.018000000
C    -0.916000000    -3.101000000     3.333000000
H    -1.971000000    -3.214000000     3.098000000
C     0.004000000    -3.896000000     2.747000000
O    -0.371000000    -4.834000000     1.814000000
C     1.347000000    -3.673000000     2.968000000
C     2.420000000    -4.551000000     2.328000000
H     3.284000000    -4.723000000     2.974000000
C     2.862000000    -4.046000000     1.004000000
C     3.899000000    -3.131000000     0.927000000
H     4.377000000    -2.750000000     1.825000000
H     2.023000000    -5.558000000     2.178000000
C     1.752000000    -2.609000000     3.860000000
H     2.801000000    -2.449000000     4.096000000
C     0.765000000    -1.733000000     4.331000000
C     1.363000000    -0.654000000     5.247000000
H     2.276000000    -0.874000000     5.804000000
H     0.669000000    -0.392000000     6.048000000
C     1.514000000     0.599000000     4.429000000
C     2.744000000     0.935000000     3.927000000
H     3.657000000     0.393000000     4.159000000
C     0.453000000     1.440000000     4.203000000
C     0.643000000     2.691000000     3.562000000
H    -0.193000000     3.379000000     3.464000000
C     1.905000000     2.986000000     3.067000000
O     1.948000000     4.072000000     2.273000000
C     1.929000000     3.794000000     0.907000000
C     1.035000000     4.755000000     0.100000000
C     1.395000000     5.227000000    -1.199000000
H     2.392000000     5.095000000    -1.610000000
C    -0.225000000     5.090000000     0.649000000
H    -0.478000000     4.724000000     1.640000000
O     3.251000000     3.783000000     0.381000000
H     1.524000000     2.772000000     0.871000000
C     3.002000000     2.095000000     3.202000000
C     4.330000000     2.418000000     2.628000000
H     5.090000000     1.921000000     3.234000000
H     4.466000000     3.501000000     2.668000000
C     4.344000000     1.851000000     1.247000000
C     4.654000000     0.488000000     1.077000000
H     5.022000000    -0.156000000     1.872000000
C     3.782000000     2.563000000     0.130000000
C     3.737000000     2.004000000    -1.162000000
H     3.391000000     2.632000000    -1.979000000
C     4.155000000     0.639000000    -1.305000000
O     4.157000000     0.068000000    -2.516000000
C     3.027000000    -0.774000000    -2.689000000
C     2.267000000    -0.399000000    -3.965000000
C     2.282000000     0.913000000    -4.530000000
H     3.014000000     1.709000000    -4.414000000
C     1.396000000    -1.357000000    -4.487000000
H     1.388000000    -2.412000000    -4.226000000
O     3.499000000    -2.183000000    -2.676000000
H     2.384000000    -0.688000000    -1.801000000
C     4.683000000    -0.052000000    -0.209000000
C     5.199000000    -1.457000000    -0.433000000
H     5.893000000    -1.728000000     0.366000000
H     5.795000000    -1.574000000    -1.340000000
C     4.090000000    -2.496000000    -0.294000000
C     3.332000000    -2.812000000    -1.459000000
C     2.311000000    -3.717000000    -1.375000000
H     1.803000000    -4.071000000    -2.269000000
C     2.117000000    -4.377000000    -0.140000000
O     1.001000000    -5.140000000    -0.103000000
C    -0.172000000    -4.497000000     0.501000000
H     0.011000000    -3.412000000     0.501000000
C    -1.398000000    -4.812000000    -0.382000000
C    -2.735000000    -4.560000000     0.099000000
H    -3.000000000    -4.363000000     1.135000000
C    -1.268000000    -5.078000000    -1.757000000
H    -0.245000000    -5.121000000    -2.122000000
C    -2.360000000    -5.335000000    -2.582000000
O    -2.185000000    -5.746000000    -3.880000000
C    -3.624000000    -5.051000000    -2.103000000
H    -4.492000000    -5.077000000    -2.757000000
C    -3.828000000    -4.614000000    -0.771000000
O    -5.111000000    -4.485000000    -0.294000000
C    -5.421000000    -3.987000000     0.973000000
C    -5.827000000    -2.673000000     1.037000000
H    -5.756000000    -2.067000000     0.137000000
C    -5.349000000    -4.766000000     2.074000000
H    -5.028000000    -5.803000000     2.015000000
C    -5.745000000    -4.188000000     3.274000000
H    -5.782000000    -4.814000000     4.162000000
C    -6.076000000    -2.861000000     3.376000000
H    -6.395000000    -2.428000000     4.321000000
C    -6.062000000    -2.038000000     2.270000000
O    -6.243000000    -0.690000000     2.322000000
C    -5.265000000     0.166000000     2.703000000
C    -5.668000000     1.459000000     2.871000000
H    -6.725000000     1.686000000     2.759000000
C    -4.757000000     2.382000000     3.325000000
O    -5.128000000     3.723000000     3.441000000
C    -4.232000000     4.666000000     3.163000000
C    -3.778000000     4.831000000     1.857000000
H    -4.112000000     4.252000000     1.000000000
C    -3.726000000     5.374000000     4.232000000
H    -4.207000000     5.254000000     5.199000000
C    -2.678000000     6.301000000     4.025000000
H    -2.280000000     6.769000000     4.922000000
C    -2.288000000     6.555000000     2.739000000
H    -1.522000000     7.320000000     2.639000000
C    -2.856000000     5.863000000     1.652000000
O    -2.487000000     6.163000000     0.414000000
C    -1.167000000     5.861000000    -0.056000000
C    -0.750000000     6.307000000    -1.361000000
H    -1.417000000     7.000000000    -1.867000000
C     0.443000000     5.953000000    -1.859000000
O     0.684000000     6.331000000    -3.174000000
C     1.477000000     5.604000000    -4.057000000
C     1.054000000     4.379000000    -4.512000000
H     0.081000000     3.984000000    -4.232000000
C     2.702000000     6.073000000    -4.404000000
H     3.060000000     7.010000000    -3.983000000
C     3.534000000     5.326000000    -5.298000000
H     4.567000000     5.622000000    -5.461000000
C     3.043000000     4.127000000    -5.800000000
H     3.611000000     3.672000000    -6.607000000
C     1.808000000     3.629000000    -5.387000000
O     1.255000000     2.501000000    -6.018000000
C     1.335000000     1.235000000    -5.462000000
C     0.460000000     0.294000000    -5.957000000
H    -0.306000000     0.564000000    -6.680000000
C     0.500000000    -1.027000000    -5.501000000
O    -0.396000000    -1.889000000    -6.076000000
C    -0.404000000    -3.177000000    -5.864000000
C     0.382000000    -4.007000000    -6.636000000
H     1.000000000    -3.543000000    -7.400000000
C     0.372000000    -5.359000000    -6.465000000
H     0.972000000    -5.926000000    -7.172000000
C    -0.512000000    -5.910000000    -5.546000000
H    -0.587000000    -6.993000000    -5.490000000
C    -1.353000000    -5.147000000    -4.770000000
C    -1.209000000    -3.723000000    -4.852000000
H    -1.842000000    -3.086000000    -4.239000000
C    -0.233000000     0.775000000    -1.766000000
H     0.082000000     1.597000000    -2.404000000
C     0.530000000     0.476000000    -0.611000000
H     1.459000000     0.994000000    -0.383000000
C     0.134000000    -0.485000000     0.291000000
H     0.632000000    -0.851000000     1.176000000
C    -1.096000000    -1.179000000     0.056000000
H    -1.440000000    -2.013000000     0.662000000
C    -1.798000000    -0.923000000    -1.154000000
H    -2.767000000    -1.408000000    -1.242000000
C    -1.445000000     0.118000000    -1.984000000
C    -2.268000000     0.438000000    -3.179000000
O    -3.106000000    -0.293000000    -3.632000000
O    -2.115000000     1.530000000    -3.588000000
O    -5.046000000     1.445000000    -0.320000000
H    -5.208000000     0.917000000    -1.102000000
H    -4.193000000     1.148000000    -0.003000000
O    -5.480000000    -2.660000000    -7.431000000
H    -5.240000000    -3.513000000    -7.069000000
H    -4.673000000    -2.147000000    -7.390000000
O    -2.420000000     3.169000000    -5.693000000
H    -2.572000000     3.949000000    -5.160000000
H    -2.074000000     2.522000000    -5.077000000
O    -2.457000000     5.593000000    -4.756000000
H    -1.711000000     6.078000000    -4.403000000
H    -3.219000000     6.125000000    -4.529000000
O    -1.245000000     2.347000000    -8.198000000
H    -0.730000000     3.069000000    -8.557000000
H    -1.657000000     2.712000000    -7.415000000
O     4.339000000    -1.030000000    -5.884000000
H     3.631000000    -0.820000000    -5.275000000
H     4.444000000    -1.979000000    -5.812000000
O    -4.492000000     3.108000000    -2.611000000
H    -4.800000000     2.685000000    -1.810000000
H    -3.706000000     2.618000000    -2.854000000
O    -7.993000000     2.115000000    -1.515000000
H    -7.834000000     3.059000000    -1.509000000
H    -7.172000000     1.732000000    -1.206000000
O    -6.399000000     5.549000000    -3.920000000
H    -5.911000000     4.775000000    -3.640000000
H    -5.919000000     6.285000000    -3.540000000
O    -6.811000000     0.757000000    -4.793000000
H    -6.558000000     0.621000000    -3.879000000
H    -5.994000000     0.982000000    -5.237000000
O    -7.457000000    -2.525000000    -2.357000000
H    -7.509000000    -2.781000000    -3.278000000
H    -7.584000000    -3.342000000    -1.874000000
O    -4.405000000     1.230000000    -5.772000000
H    -3.877000000     1.972000000    -6.066000000
H    -3.864000000     0.798000000    -5.111000000
O    -5.667000000    -0.513000000    -2.133000000
H    -6.341000000    -1.191000000    -2.074000000
H    -5.069000000    -0.829000000    -2.811000000
O    -3.163000000    -1.220000000    -7.479000000
H    -3.173000000    -0.396000000    -6.994000000
H    -2.314000000    -1.227000000    -7.922000000
O    -4.425000000    -4.683000000    -5.930000000
H    -4.306000000    -3.974000000    -5.298000000
H    -4.382000000    -5.482000000    -5.405000000
O    -0.724000000    -0.349000000    -9.094000000
H    -1.023000000     0.558000000    -9.021000000
H    -0.012000000    -0.417000000    -8.457000000
O    -4.406000000    -2.650000000    -4.140000000
H    -5.307000000    -2.367000000    -3.987000000
H    -3.874000000    -1.885000000    -3.921000000
O    -1.526000000     5.088000000    -7.228000000
H    -1.105000000     5.879000000    -6.892000000
H    -1.896000000     4.665000000    -6.453000000
O    -7.015000000    -1.948000000    -5.088000000
H    -7.146000000    -1.013000000    -5.244000000
H    -6.474000000    -2.240000000    -5.822000000
