215
-1479.45075
C    -2.903000000     2.050000000     3.896000000
H    -2.132000000     2.745000000     4.216000000
C    -2.495000000     0.711000000     3.756000000
C    -3.507000000    -0.216000000     3.387000000
H    -3.155000000    -1.226000000     3.192000000
C    -1.080000000     0.294000000     4.007000000
O    -0.242000000     1.243000000     4.766000000
H    -0.583000000     0.169000000     3.034000000
O    -1.057000000    -0.998000000     4.627000000
C    -0.220000000    -2.014000000     4.240000000
C    -0.735000000    -2.976000000     3.421000000
H    -1.814000000    -2.995000000     3.290000000
C     0.054000000    -3.901000000     2.732000000
O    -0.494000000    -4.753000000     1.757000000
C     1.424000000    -3.758000000     2.844000000
C     2.382000000    -4.582000000     1.920000000
H     3.359000000    -4.728000000     2.384000000
C     2.604000000    -3.917000000     0.518000000
C     3.650000000    -3.107000000     0.298000000
H     4.335000000    -2.994000000     1.135000000
H     2.140000000    -5.646000000     1.879000000
C     1.972000000    -2.793000000     3.675000000
H     3.047000000    -2.676000000     3.787000000
C     1.146000000    -1.908000000     4.351000000
C     1.775000000    -0.913000000     5.259000000
H     2.664000000    -1.350000000     5.719000000
H     1.039000000    -0.730000000     6.044000000
C     2.070000000     0.416000000     4.561000000
C     3.256000000     0.606000000     3.866000000
H     4.037000000    -0.120000000     4.080000000
C     1.058000000     1.397000000     4.407000000
C     1.327000000     2.567000000     3.712000000
H     0.599000000     3.372000000     3.645000000
C     2.546000000     2.709000000     2.977000000
O     2.571000000     3.808000000     2.135000000
C     2.315000000     3.513000000     0.839000000
C     1.356000000     4.521000000     0.253000000
C     1.581000000     4.947000000    -1.087000000
H     2.427000000     4.496000000    -1.600000000
C     0.197000000     5.004000000     0.888000000
H    -0.048000000     4.716000000     1.907000000
O     3.626000000     3.468000000     0.234000000
H     1.907000000     2.505000000     0.677000000
C     3.541000000     1.702000000     3.055000000
C     4.861000000     1.917000000     2.299000000
H     5.669000000     1.297000000     2.694000000
H     5.221000000     2.947000000     2.357000000
C     4.767000000     1.415000000     0.841000000
C     5.105000000     0.137000000     0.485000000
H     5.522000000    -0.615000000     1.150000000
C     4.163000000     2.236000000    -0.115000000
C     4.021000000     1.811000000    -1.470000000
H     3.637000000     2.478000000    -2.237000000
C     4.317000000     0.503000000    -1.789000000
O     4.036000000     0.024000000    -3.039000000
C     2.851000000    -0.759000000    -3.135000000
C     1.969000000    -0.318000000    -4.317000000
C     1.747000000     1.019000000    -4.605000000
H     2.210000000     1.745000000    -3.941000000
C     1.258000000    -1.303000000    -5.029000000
H     1.396000000    -2.377000000    -4.933000000
O     3.190000000    -2.163000000    -3.184000000
H     2.294000000    -0.632000000    -2.196000000
C     4.852000000    -0.403000000    -0.831000000
C     5.239000000    -1.815000000    -1.199000000
H     6.018000000    -2.123000000    -0.499000000
H     5.575000000    -1.937000000    -2.231000000
C     3.953000000    -2.632000000    -0.967000000
C     3.065000000    -2.867000000    -2.023000000
C     1.920000000    -3.658000000    -1.794000000
H     1.117000000    -3.828000000    -2.506000000
C     1.757000000    -4.242000000    -0.563000000
O     0.656000000    -4.992000000    -0.339000000
C    -0.452000000    -4.304000000     0.374000000
H    -0.177000000    -3.250000000     0.215000000
C    -1.720000000    -4.620000000    -0.380000000
C    -2.949000000    -4.744000000     0.294000000
H    -2.868000000    -4.532000000     1.357000000
C    -1.804000000    -4.556000000    -1.759000000
H    -0.892000000    -4.405000000    -2.330000000
C    -2.999000000    -4.823000000    -2.460000000
O    -3.095000000    -4.901000000    -3.848000000
C    -4.186000000    -4.966000000    -1.676000000
H    -5.126000000    -5.137000000    -2.195000000
C    -4.161000000    -4.801000000    -0.302000000
O    -5.382000000    -4.867000000     0.407000000
C    -5.705000000    -4.082000000     1.554000000
C    -5.432000000    -2.761000000     1.541000000
H    -5.026000000    -2.338000000     0.625000000
C    -6.404000000    -4.643000000     2.619000000
H    -6.655000000    -5.699000000     2.558000000
C    -6.661000000    -3.933000000     3.768000000
H    -7.143000000    -4.381000000     4.633000000
C    -6.328000000    -2.554000000     3.776000000
H    -6.605000000    -1.908000000     4.605000000
C    -5.773000000    -1.972000000     2.634000000
O    -5.780000000    -0.592000000     2.423000000
C    -4.805000000     0.219000000     3.070000000
C    -5.155000000     1.568000000     3.177000000
H    -6.181000000     1.899000000     3.038000000
C    -4.166000000     2.474000000     3.559000000
O    -4.552000000     3.810000000     3.729000000
C    -3.710000000     4.862000000     3.583000000
C    -3.050000000     5.057000000     2.389000000
H    -3.024000000     4.301000000     1.609000000
C    -3.678000000     5.918000000     4.564000000
H    -4.334000000     5.899000000     5.431000000
C    -2.863000000     7.000000000     4.370000000
H    -2.879000000     7.841000000     5.059000000
C    -2.195000000     7.164000000     3.143000000
H    -1.583000000     8.054000000     3.022000000
C    -2.271000000     6.206000000     2.161000000
O    -1.839000000     6.387000000     0.859000000
C    -0.688000000     5.873000000     0.318000000
C    -0.484000000     6.179000000    -0.976000000
H    -1.174000000     6.851000000    -1.478000000
C     0.697000000     5.839000000    -1.641000000
O     0.859000000     6.406000000    -2.930000000
C     1.407000000     5.632000000    -3.928000000
C     0.758000000     4.518000000    -4.424000000
H    -0.248000000     4.243000000    -4.119000000
C     2.675000000     5.915000000    -4.460000000
H     3.264000000     6.776000000    -4.156000000
C     3.263000000     5.022000000    -5.311000000
H     4.289000000     5.180000000    -5.636000000
C     2.586000000     3.967000000    -5.871000000
H     3.085000000     3.352000000    -6.616000000
C     1.276000000     3.776000000    -5.437000000
O     0.530000000     2.728000000    -5.820000000
C     0.845000000     1.359000000    -5.589000000
C     0.119000000     0.447000000    -6.300000000
H    -0.599000000     0.815000000    -7.029000000
C     0.277000000    -0.915000000    -6.005000000
O    -0.672000000    -1.790000000    -6.503000000
C    -0.831000000    -3.056000000    -6.035000000
C    -0.142000000    -4.054000000    -6.731000000
H     0.626000000    -3.863000000    -7.476000000
C    -0.402000000    -5.375000000    -6.340000000
H    -0.015000000    -6.094000000    -7.057000000
C    -1.429000000    -5.688000000    -5.456000000
H    -1.879000000    -6.677000000    -5.406000000
C    -2.037000000    -4.715000000    -4.767000000
C    -1.854000000    -3.379000000    -5.099000000
H    -2.369000000    -2.626000000    -4.507000000
C    -0.419000000     0.781000000    -1.895000000
H    -0.120000000     1.411000000    -2.728000000
C     0.429000000     0.561000000    -0.817000000
H     1.404000000     1.040000000    -0.788000000
C     0.006000000    -0.267000000     0.242000000
H     0.744000000    -0.527000000     1.018000000
C    -1.200000000    -0.870000000     0.204000000
H    -1.575000000    -1.510000000     0.998000000
C    -2.085000000    -0.629000000    -0.848000000
H    -3.060000000    -1.106000000    -0.909000000
C    -1.677000000     0.168000000    -1.927000000
C    -2.681000000     0.416000000    -3.012000000
O    -3.704000000    -0.286000000    -3.112000000
O    -2.668000000     1.370000000    -3.810000000
O    -4.235000000     7.002000000    -2.074000000
H    -4.571000000     6.395000000    -2.734000000
H    -4.997000000     7.212000000    -1.533000000
O    -2.887000000     2.139000000    -6.394000000
H    -2.925000000     1.248000000    -6.742000000
H    -2.584000000     2.032000000    -5.493000000
O    -7.619000000    -0.319000000    -5.090000000
H    -6.674000000    -0.246000000    -5.222000000
H    -7.944000000     0.577000000    -5.183000000
O    -2.253000000     2.545000000     0.079000000
H    -1.449000000     2.076000000    -0.144000000
H    -2.491000000     3.007000000    -0.725000000
O    -2.709000000     3.515000000    -2.313000000
H    -2.387000000     4.308000000    -2.742000000
H    -2.446000000     2.803000000    -2.896000000
O    -4.986000000     5.304000000    -3.916000000
H    -5.294000000     4.466000000    -3.570000000
H    -4.301000000     5.068000000    -4.541000000
O    -8.123000000    -1.737000000    -1.516000000
H    -7.193000000    -1.532000000    -1.415000000
H    -8.545000000    -0.885000000    -1.632000000
O    -4.945000000    -0.581000000    -5.430000000
H    -5.207000000    -1.492000000    -5.297000000
H    -4.384000000    -0.381000000    -4.680000000
O    -6.292000000     4.845000000    -0.809000000
H    -6.771000000     4.624000000    -1.607000000
H    -5.750000000     4.076000000    -0.634000000
O    -4.960000000     2.277000000     0.171000000
H    -5.296000000     1.553000000     0.700000000
H    -4.009000000     2.167000000     0.192000000
O    -5.144000000     3.771000000    -7.211000000
H    -4.864000000     3.002000000    -6.714000000
H    -4.345000000     4.090000000    -7.630000000
O    -4.277000000     0.326000000    -8.158000000
H    -4.652000000    -0.048000000    -7.361000000
H    -5.011000000     0.765000000    -8.586000000
O    -5.591000000    -1.824000000    -1.901000000
H    -5.932000000    -2.318000000    -2.647000000
H    -4.885000000    -1.293000000    -2.267000000
O    -2.404000000     2.289000000    -9.382000000
H    -2.691000000     1.737000000   -10.109000000
H    -2.824000000     1.908000000    -8.611000000
O    -2.214000000     4.858000000    -5.841000000
H    -2.322000000     3.915000000    -5.720000000
H    -1.491000000     4.939000000    -6.464000000
O    -7.379000000     4.167000000    -5.058000000
H    -7.757000000     3.371000000    -5.432000000
H    -6.675000000     4.404000000    -5.662000000
O    -8.354000000     1.524000000    -1.797000000
H    -8.559000000     2.455000000    -1.715000000
H    -7.489000000     1.504000000    -2.205000000
O    -5.815000000     2.661000000    -2.697000000
H    -5.184000000     2.169000000    -3.222000000
H    -5.509000000     2.559000000    -1.796000000
O    -6.320000000    -3.490000000    -3.977000000
H    -5.903000000    -4.225000000    -4.427000000
H    -7.219000000    -3.486000000    -4.306000000
