215
-1452.09156
C    -2.720000000     2.202000000     4.317000000
H    -1.995000000     2.946000000     4.636000000
C    -2.462000000     0.828000000     4.104000000
C    -3.429000000     0.043000000     3.451000000
H    -3.081000000    -0.928000000     3.110000000
C    -1.030000000     0.267000000     4.289000000
O    -0.215000000     1.036000000     5.157000000
H    -0.609000000     0.239000000     3.273000000
O    -1.068000000    -1.057000000     4.833000000
C    -0.161000000    -1.880000000     4.250000000
C    -0.693000000    -2.791000000     3.330000000
H    -1.771000000    -2.834000000     3.201000000
C     0.092000000    -3.682000000     2.691000000
O    -0.528000000    -4.514000000     1.778000000
C     1.536000000    -3.677000000     2.906000000
C     2.420000000    -4.607000000     2.020000000
H     3.377000000    -4.856000000     2.483000000
C     2.671000000    -4.029000000     0.646000000
C     3.771000000    -3.295000000     0.483000000
H     4.386000000    -3.074000000     1.351000000
H     1.928000000    -5.569000000     1.862000000
C     2.086000000    -2.738000000     3.812000000
H     3.164000000    -2.671000000     3.934000000
C     1.236000000    -1.897000000     4.468000000
C     1.948000000    -0.821000000     5.362000000
H     2.972000000    -1.101000000     5.616000000
H     1.386000000    -0.602000000     6.272000000
C     2.052000000     0.465000000     4.639000000
C     3.175000000     0.681000000     3.801000000
H     3.972000000    -0.048000000     3.679000000
C     0.991000000     1.316000000     4.577000000
C     1.010000000     2.485000000     3.772000000
H     0.142000000     3.114000000     3.594000000
C     2.203000000     2.720000000     3.104000000
O     2.177000000     3.746000000     2.180000000
C     2.012000000     3.520000000     0.747000000
C     0.954000000     4.434000000     0.150000000
C     0.711000000     4.416000000    -1.212000000
H     1.429000000     3.851000000    -1.801000000
C     0.125000000     5.206000000     0.962000000
H     0.316000000     5.456000000     2.003000000
O     3.219000000     3.647000000    -0.026000000
H     1.671000000     2.474000000     0.721000000
C     3.269000000     1.805000000     3.033000000
C     4.568000000     2.165000000     2.235000000
H     5.455000000     1.848000000     2.788000000
H     4.791000000     3.233000000     2.208000000
C     4.467000000     1.606000000     0.756000000
C     4.875000000     0.270000000     0.512000000
H     5.348000000    -0.324000000     1.289000000
C     3.893000000     2.396000000    -0.258000000
C     3.705000000     1.796000000    -1.486000000
H     3.263000000     2.435000000    -2.247000000
C     4.154000000     0.480000000    -1.778000000
O     3.874000000     0.072000000    -3.006000000
C     2.801000000    -0.987000000    -3.179000000
C     2.037000000    -0.805000000    -4.498000000
C     1.705000000     0.466000000    -4.933000000
H     2.055000000     1.337000000    -4.383000000
C     1.561000000    -1.883000000    -5.194000000
H     1.594000000    -2.878000000    -4.759000000
O     3.326000000    -2.310000000    -3.050000000
H     2.084000000    -0.850000000    -2.357000000
C     4.712000000    -0.303000000    -0.751000000
C     5.206000000    -1.721000000    -0.979000000
H     6.079000000    -1.948000000    -0.364000000
H     5.563000000    -1.792000000    -2.008000000
C     4.067000000    -2.694000000    -0.802000000
C     3.222000000    -2.992000000    -1.874000000
C     2.085000000    -3.770000000    -1.681000000
H     1.406000000    -3.974000000    -2.505000000
C     1.836000000    -4.304000000    -0.407000000
O     0.621000000    -4.875000000    -0.253000000
C    -0.383000000    -4.055000000     0.352000000
H    -0.100000000    -2.992000000     0.342000000
C    -1.743000000    -4.169000000    -0.430000000
C    -2.927000000    -4.404000000     0.272000000
H    -2.891000000    -4.419000000     1.358000000
C    -1.738000000    -4.027000000    -1.782000000
H    -0.912000000    -3.581000000    -2.330000000
C    -2.877000000    -4.160000000    -2.476000000
O    -2.793000000    -3.922000000    -3.833000000
C    -4.094000000    -4.324000000    -1.871000000
H    -5.011000000    -4.312000000    -2.455000000
C    -4.103000000    -4.444000000    -0.474000000
O    -5.258000000    -4.504000000     0.206000000
C    -5.522000000    -3.630000000     1.283000000
C    -5.460000000    -2.236000000     1.148000000
H    -5.041000000    -1.783000000     0.253000000
C    -5.986000000    -4.292000000     2.412000000
H    -6.049000000    -5.377000000     2.426000000
C    -6.170000000    -3.483000000     3.576000000
H    -6.464000000    -4.012000000     4.479000000
C    -6.054000000    -2.054000000     3.475000000
H    -6.262000000    -1.432000000     4.342000000
C    -5.652000000    -1.475000000     2.284000000
O    -5.632000000    -0.101000000     2.278000000
C    -4.674000000     0.561000000     3.063000000
C    -4.934000000     1.867000000     3.396000000
H    -5.848000000     2.206000000     2.915000000
C    -3.945000000     2.686000000     3.882000000
O    -4.162000000     3.985000000     3.972000000
C    -3.386000000     5.097000000     3.789000000
C    -2.911000000     5.430000000     2.544000000
H    -3.141000000     4.763000000     1.717000000
C    -3.207000000     5.988000000     4.810000000
H    -3.765000000     5.678000000     5.689000000
C    -2.539000000     7.197000000     4.660000000
H    -2.471000000     7.909000000     5.478000000
C    -1.997000000     7.484000000     3.383000000
H    -1.353000000     8.348000000     3.243000000
C    -2.169000000     6.632000000     2.297000000
O    -1.589000000     6.927000000     1.084000000
C    -0.880000000     5.960000000     0.385000000
C    -1.008000000     5.962000000    -1.013000000
H    -1.784000000     6.593000000    -1.440000000
C    -0.239000000     5.194000000    -1.836000000
O    -0.463000000     5.181000000    -3.209000000
C     0.456000000     4.708000000    -4.158000000
C     0.221000000     3.566000000    -4.922000000
H    -0.671000000     2.948000000    -4.859000000
C     1.679000000     5.425000000    -4.400000000
H     1.934000000     6.349000000    -3.887000000
C     2.611000000     4.907000000    -5.329000000
H     3.522000000     5.470000000    -5.517000000
C     2.296000000     3.710000000    -6.010000000
H     3.062000000     3.472000000    -6.743000000
C     1.119000000     3.029000000    -5.815000000
O     0.809000000     1.893000000    -6.550000000
C     0.927000000     0.654000000    -6.102000000
C     0.557000000    -0.428000000    -6.900000000
H    -0.058000000    -0.289000000    -7.786000000
C     0.951000000    -1.697000000    -6.485000000
O     0.370000000    -2.758000000    -7.117000000
C    -0.263000000    -3.798000000    -6.460000000
C     0.170000000    -5.127000000    -6.430000000
H     1.011000000    -5.304000000    -7.095000000
C    -0.446000000    -6.065000000    -5.638000000
H    -0.102000000    -7.091000000    -5.746000000
C    -1.321000000    -5.628000000    -4.674000000
H    -1.818000000    -6.226000000    -3.914000000
C    -1.785000000    -4.348000000    -4.669000000
C    -1.211000000    -3.428000000    -5.570000000
H    -1.478000000    -2.376000000    -5.517000000
C    -0.938000000     1.029000000    -1.777000000
H    -0.582000000     1.832000000    -2.418000000
C    -0.107000000     0.647000000    -0.679000000
H     0.822000000     1.160000000    -0.442000000
C    -0.591000000    -0.299000000     0.212000000
H     0.082000000    -0.583000000     1.065000000
C    -1.857000000    -0.870000000     0.006000000
H    -2.200000000    -1.622000000     0.712000000
C    -2.619000000    -0.575000000    -1.085000000
H    -3.611000000    -0.972000000    -1.288000000
C    -2.079000000     0.362000000    -1.989000000
C    -2.903000000     0.776000000    -3.213000000
O    -3.924000000     0.183000000    -3.464000000
O    -2.558000000     1.642000000    -3.972000000
O    -5.918000000    -1.326000000    -2.448000000
H    -5.825000000    -2.050000000    -3.067000000
H    -5.261000000    -0.687000000    -2.726000000
O    -2.561000000     0.835000000    -9.370000000
H    -3.149000000     0.628000000    -8.644000000
H    -2.457000000     1.786000000    -9.330000000
O    -6.464000000     3.810000000    -6.196000000
H    -5.666000000     3.816000000    -6.724000000
H    -6.197000000     4.175000000    -5.352000000
O    -2.544000000     2.261000000     0.604000000
H    -3.226000000     1.591000000     0.649000000
H    -1.739000000     1.773000000     0.432000000
O    -3.309000000     4.157000000    -4.251000000
H    -3.180000000     4.360000000    -3.324000000
H    -3.072000000     3.233000000    -4.329000000
O    -6.252000000    -1.158000000    -6.899000000
H    -5.703000000    -1.645000000    -6.285000000
H    -6.509000000    -0.371000000    -6.419000000
O    -6.217000000     1.874000000    -3.376000000
H    -5.514000000     1.270000000    -3.138000000
H    -5.986000000     2.694000000    -2.938000000
O    -3.613000000     0.795000000    -6.369000000
H    -4.490000000     0.743000000    -5.991000000
H    -3.046000000     1.015000000    -5.630000000
O    -4.759000000     6.631000000    -1.313000000
H    -5.404000000     6.542000000    -0.611000000
H    -4.187000000     5.870000000    -1.210000000
O    -3.677000000     4.050000000    -1.283000000
H    -3.254000000     3.403000000    -0.719000000
H    -4.612000000     3.953000000    -1.100000000
O    -3.371000000    -1.759000000    -7.924000000
H    -4.070000000    -1.515000000    -8.530000000
H    -3.399000000    -1.086000000    -7.243000000
O    -1.464000000     3.166000000    -8.331000000
H    -1.453000000     3.213000000    -7.375000000
H    -0.566000000     3.369000000    -8.591000000
O    -5.775000000     5.224000000    -3.972000000
H    -5.787000000     6.011000000    -3.427000000
H    -4.857000000     4.953000000    -3.982000000
O    -4.469000000    -1.742000000    -5.035000000
H    -3.804000000    -2.311000000    -4.648000000
H    -4.397000000    -0.922000000    -4.546000000
O    -2.531000000     5.563000000    -6.636000000
H    -2.747000000     5.114000000    -5.819000000
H    -2.789000000     6.473000000    -6.484000000
O    -6.506000000     4.126000000    -0.957000000
H    -6.834000000     4.205000000    -0.061000000
H    -7.291000000     4.161000000    -1.503000000
O    -6.924000000     1.235000000    -5.869000000
H    -6.581000000     2.000000000    -6.329000000
H    -7.009000000     1.521000000    -4.959000000
O    -4.562000000     3.622000000    -8.248000000
H    -3.689000000     3.955000000    -8.039000000
H    -4.431000000     3.078000000    -9.025000000
O    -8.868000000     1.335000000    -2.527000000
H    -7.986000000     1.453000000    -2.879000000
H    -9.432000000     1.831000000    -3.121000000
