215
-1471.48276
C    -3.020000000     1.465000000     3.832000000
H    -2.133000000     2.061000000     3.631000000
C    -2.981000000     0.093000000     3.857000000
C    -4.184000000    -0.629000000     3.868000000
H    -4.275000000    -1.711000000     3.913000000
C    -1.651000000    -0.566000000     3.854000000
O    -0.655000000     0.033000000     4.774000000
H    -1.228000000    -0.466000000     2.843000000
O    -1.784000000    -1.899000000     4.106000000
C    -1.133000000    -2.830000000     3.338000000
C    -1.847000000    -3.436000000     2.263000000
H    -2.867000000    -3.142000000     2.027000000
C    -1.116000000    -4.241000000     1.368000000
O    -1.700000000    -4.670000000     0.239000000
C     0.202000000    -4.590000000     1.577000000
C     1.053000000    -5.451000000     0.639000000
H     1.800000000    -6.011000000     1.205000000
C     1.666000000    -4.536000000    -0.493000000
C     2.938000000    -4.036000000    -0.355000000
H     3.437000000    -4.385000000     0.545000000
H     0.482000000    -6.244000000     0.150000000
C     0.848000000    -4.115000000     2.769000000
H     1.855000000    -4.489000000     2.941000000
C     0.166000000    -3.171000000     3.582000000
C     0.907000000    -2.642000000     4.763000000
H     1.790000000    -3.216000000     5.050000000
H     0.258000000    -2.637000000     5.642000000
C     1.411000000    -1.247000000     4.392000000
C     2.752000000    -1.152000000     3.993000000
H     3.398000000    -2.025000000     3.941000000
C     0.695000000    -0.025000000     4.470000000
C     1.249000000     1.143000000     4.033000000
H     0.642000000     2.035000000     4.159000000
C     2.547000000     1.233000000     3.530000000
O     3.001000000     2.455000000     3.155000000
C     2.850000000     2.724000000     1.725000000
C     2.309000000     4.117000000     1.415000000
C     2.809000000     4.885000000     0.335000000
H     3.606000000     4.422000000    -0.242000000
C     1.241000000     4.583000000     2.120000000
H     0.718000000     3.914000000     2.798000000
O     4.197000000     2.582000000     1.239000000
H     2.164000000     1.946000000     1.359000000
C     3.322000000     0.053000000     3.506000000
C     4.758000000     0.186000000     2.969000000
H     5.420000000    -0.636000000     3.251000000
H     5.340000000     0.971000000     3.457000000
C     4.872000000     0.258000000     1.452000000
C     5.032000000    -0.952000000     0.805000000
H     5.176000000    -1.849000000     1.402000000
C     4.564000000     1.394000000     0.671000000
C     4.499000000     1.256000000    -0.723000000
H     4.253000000     2.100000000    -1.362000000
C     4.665000000     0.037000000    -1.371000000
O     4.381000000     0.019000000    -2.732000000
C     3.081000000    -0.494000000    -3.095000000
C     2.393000000     0.289000000    -4.242000000
C     2.540000000     1.681000000    -4.314000000
H     3.129000000     2.115000000    -3.510000000
C     1.498000000    -0.258000000    -5.122000000
H     1.348000000    -1.334000000    -5.159000000
O     3.201000000    -1.873000000    -3.398000000
H     2.459000000    -0.413000000    -2.191000000
C     4.913000000    -1.077000000    -0.572000000
C     4.898000000    -2.502000000    -1.195000000
H     5.433000000    -3.164000000    -0.511000000
H     5.470000000    -2.524000000    -2.125000000
C     3.475000000    -3.054000000    -1.287000000
C     2.742000000    -2.789000000    -2.420000000
C     1.462000000    -3.263000000    -2.594000000
H     0.843000000    -2.868000000    -3.395000000
C     0.905000000    -4.132000000    -1.608000000
O    -0.413000000    -4.548000000    -1.744000000
C    -1.414000000    -3.866000000    -0.909000000
H    -0.923000000    -2.954000000    -0.537000000
C    -2.671000000    -3.401000000    -1.698000000
C    -3.804000000    -3.074000000    -0.948000000
H    -3.850000000    -3.088000000     0.138000000
C    -2.618000000    -3.094000000    -3.069000000
H    -1.668000000    -3.269000000    -3.568000000
C    -3.738000000    -2.647000000    -3.734000000
O    -3.656000000    -2.336000000    -5.111000000
C    -4.890000000    -2.331000000    -2.999000000
H    -5.756000000    -1.939000000    -3.526000000
C    -4.889000000    -2.565000000    -1.640000000
O    -6.029000000    -2.086000000    -1.035000000
C    -6.379000000    -2.376000000     0.206000000
C    -6.198000000    -1.427000000     1.157000000
H    -5.795000000    -0.469000000     0.837000000
C    -6.956000000    -3.624000000     0.545000000
H    -7.146000000    -4.421000000    -0.170000000
C    -7.468000000    -3.753000000     1.819000000
H    -7.887000000    -4.718000000     2.094000000
C    -7.208000000    -2.863000000     2.868000000
H    -7.572000000    -2.921000000     3.891000000
C    -6.647000000    -1.630000000     2.460000000
O    -6.506000000    -0.684000000     3.417000000
C    -5.357000000     0.030000000     3.703000000
C    -5.432000000     1.425000000     3.820000000
H    -6.410000000     1.898000000     3.817000000
C    -4.244000000     2.186000000     3.945000000
O    -4.250000000     3.531000000     4.067000000
C    -3.080000000     4.231000000     4.218000000
C    -2.337000000     4.817000000     3.167000000
H    -2.750000000     4.843000000     2.162000000
C    -2.675000000     4.424000000     5.510000000
H    -3.341000000     4.090000000     6.301000000
C    -1.513000000     5.143000000     5.797000000
H    -1.273000000     5.293000000     6.847000000
C    -0.819000000     5.704000000     4.775000000
H     0.068000000     6.323000000     4.882000000
C    -1.175000000     5.480000000     3.448000000
O    -0.458000000     6.222000000     2.472000000
C     0.684000000     5.777000000     1.799000000
C     1.141000000     6.549000000     0.699000000
H     0.758000000     7.549000000     0.510000000
C     2.264000000     6.123000000    -0.043000000
O     2.584000000     6.750000000    -1.256000000
C     3.017000000     6.015000000    -2.298000000
C     2.165000000     5.216000000    -3.088000000
H     1.095000000     5.149000000    -2.909000000
C     4.385000000     5.970000000    -2.445000000
H     5.002000000     6.673000000    -1.891000000
C     4.936000000     5.329000000    -3.517000000
H     6.001000000     5.438000000    -3.705000000
C     4.122000000     4.540000000    -4.376000000
H     4.559000000     4.096000000    -5.267000000
C     2.739000000     4.504000000    -4.109000000
O     1.839000000     3.907000000    -5.029000000
C     1.759000000     2.517000000    -5.123000000
C     0.967000000     1.922000000    -6.093000000
H     0.338000000     2.515000000    -6.752000000
C     0.853000000     0.567000000    -6.059000000
O     0.135000000     0.008000000    -7.049000000
C    -0.570000000    -1.232000000    -6.904000000
C    -0.222000000    -2.348000000    -7.605000000
H     0.531000000    -2.361000000    -8.389000000
C    -0.988000000    -3.572000000    -7.401000000
H    -0.764000000    -4.481000000    -7.954000000
C    -1.996000000    -3.586000000    -6.452000000
H    -2.498000000    -4.533000000    -6.268000000
C    -2.451000000    -2.393000000    -5.871000000
C    -1.729000000    -1.211000000    -6.135000000
H    -1.998000000    -0.257000000    -5.689000000
C    -2.186000000     1.104000000    -2.270000000
H    -2.598000000     1.623000000    -3.131000000
C    -0.929000000     0.468000000    -2.293000000
H    -0.191000000     0.605000000    -3.079000000
C    -0.571000000    -0.302000000    -1.205000000
H     0.392000000    -0.704000000    -1.117000000
C    -1.371000000    -0.333000000    -0.049000000
H    -1.125000000    -0.844000000     0.878000000
C    -2.645000000     0.289000000    -0.048000000
H    -3.250000000     0.273000000     0.855000000
C    -3.039000000     1.041000000    -1.110000000
C    -4.409000000     1.606000000    -1.200000000
O    -5.170000000     1.585000000    -0.238000000
O    -4.638000000     2.287000000    -2.163000000
O    -3.793000000     8.630000000    -0.700000000
H    -3.838000000     8.942000000    -1.604000000
H    -4.166000000     7.749000000    -0.732000000
O    -7.509000000     1.875000000     0.737000000
H    -7.140000000     2.285000000     1.520000000
H    -6.756000000     1.726000000     0.166000000
O    -2.097000000     4.254000000    -0.309000000
H    -1.446000000     4.953000000    -0.246000000
H    -1.583000000     3.459000000    -0.445000000
O    -3.813000000     3.920000000    -5.381000000
H    -3.763000000     4.832000000    -5.667000000
H    -3.417000000     3.921000000    -4.509000000
O    -4.613000000     4.090000000     0.844000000
H    -3.752000000     4.034000000     0.429000000
H    -4.948000000     3.194000000     0.821000000
O    -5.649000000     6.490000000    -0.010000000
H    -6.490000000     6.143000000    -0.306000000
H    -5.286000000     5.797000000     0.543000000
O    -0.803000000     6.269000000    -1.782000000
H    -0.599000000     7.129000000    -1.414000000
H    -0.725000000     6.389000000    -2.729000000
O    -4.120000000     1.096000000    -6.320000000
H    -4.287000000     2.016000000    -6.115000000
H    -4.559000000     0.611000000    -5.622000000
O    -7.965000000    -0.395000000    -3.032000000
H    -8.047000000    -1.346000000    -3.105000000
H    -7.448000000    -0.259000000    -2.238000000
O    -9.534000000     2.328000000    -1.591000000
H    -8.873000000     2.516000000    -2.257000000
H    -9.047000000     2.314000000    -0.767000000
O    -5.549000000     0.571000000    -4.077000000
H    -5.070000000     1.219000000    -3.560000000
H    -6.357000000     0.424000000    -3.586000000
O    -6.909000000     4.504000000     2.612000000
H    -7.518000000     4.963000000     3.191000000
H    -6.045000000     4.823000000     2.873000000
O    -6.859000000     3.471000000    -2.686000000
H    -7.254000000     3.659000000    -1.834000000
H    -6.076000000     2.961000000    -2.479000000
O    -7.907000000     4.718000000    -0.137000000
H    -7.575000000     4.455000000     0.721000000
H    -8.730000000     5.169000000     0.052000000
O    -4.069000000     4.750000000    -2.604000000
H    -4.398000000     3.851000000    -2.596000000
H    -3.447000000     4.784000000    -1.877000000
O    -9.371000000     0.114000000     1.116000000
H    -8.715000000     0.664000000     0.687000000
H    -9.553000000     0.560000000     1.943000000
O    -9.505000000     0.172000000    -5.242000000
H    -8.899000000     0.120000000    -4.503000000
H    -9.910000000    -0.694000000    -5.282000000
O    -6.207000000     6.317000000    -3.163000000
H    -6.641000000     5.473000000    -3.042000000
H    -5.276000000     6.127000000    -3.045000000
O    -6.828000000     3.556000000    -5.669000000
H    -5.898000000     3.344000000    -5.592000000
H    -7.156000000     3.524000000    -4.770000000
