215
-1437.66609
C    -2.955000000     1.268000000     3.780000000
H    -2.024000000     1.796000000     3.970000000
C    -2.895000000    -0.107000000     3.687000000
C    -4.167000000    -0.685000000     3.439000000
H    -4.188000000    -1.766000000     3.552000000
C    -1.643000000    -0.886000000     3.871000000
O    -0.801000000    -0.338000000     4.880000000
H    -0.973000000    -0.779000000     3.005000000
O    -1.923000000    -2.246000000     4.160000000
C    -1.166000000    -3.140000000     3.422000000
C    -1.722000000    -3.725000000     2.292000000
H    -2.732000000    -3.429000000     2.021000000
C    -0.902000000    -4.474000000     1.413000000
O    -1.600000000    -4.783000000     0.262000000
C     0.484000000    -4.740000000     1.614000000
C     1.332000000    -5.462000000     0.591000000
H     2.218000000    -5.795000000     1.136000000
C     1.851000000    -4.574000000    -0.558000000
C     3.098000000    -3.959000000    -0.520000000
H     3.710000000    -4.018000000     0.377000000
H     0.776000000    -6.373000000     0.362000000
C     0.983000000    -4.173000000     2.752000000
H     2.040000000    -4.243000000     2.995000000
C     0.239000000    -3.390000000     3.664000000
C     0.941000000    -2.648000000     4.809000000
H     1.789000000    -3.294000000     5.049000000
H     0.247000000    -2.758000000     5.644000000
C     1.420000000    -1.212000000     4.496000000
C     2.758000000    -1.001000000     4.105000000
H     3.392000000    -1.883000000     4.064000000
C     0.517000000    -0.163000000     4.539000000
C     0.913000000     1.061000000     4.132000000
H     0.238000000     1.907000000     4.025000000
C     2.223000000     1.297000000     3.661000000
O     2.388000000     2.535000000     3.171000000
C     2.331000000     2.660000000     1.713000000
C     1.731000000     3.956000000     1.290000000
C     2.143000000     4.631000000     0.109000000
H     2.862000000     4.134000000    -0.538000000
C     0.793000000     4.558000000     2.100000000
H     0.510000000     3.964000000     2.964000000
O     3.679000000     2.592000000     1.298000000
H     1.819000000     1.750000000     1.367000000
C     3.110000000     0.203000000     3.550000000
C     4.529000000     0.429000000     2.953000000
H     5.228000000    -0.316000000     3.337000000
H     4.885000000     1.400000000     3.304000000
C     4.463000000     0.333000000     1.409000000
C     4.835000000    -0.888000000     0.772000000
H     5.129000000    -1.774000000     1.330000000
C     4.127000000     1.474000000     0.625000000
C     4.089000000     1.353000000    -0.738000000
H     3.868000000     2.215000000    -1.361000000
C     4.415000000     0.173000000    -1.348000000
O     4.238000000     0.023000000    -2.699000000
C     2.917000000    -0.404000000    -3.141000000
C     2.371000000     0.449000000    -4.296000000
C     2.620000000     1.870000000    -4.323000000
H     3.378000000     2.283000000    -3.662000000
C     1.437000000    -0.034000000    -5.178000000
H     1.171000000    -1.081000000    -5.056000000
O     2.938000000    -1.853000000    -3.510000000
H     2.238000000    -0.221000000    -2.295000000
C     4.702000000    -0.955000000    -0.645000000
C     4.847000000    -2.365000000    -1.295000000
H     5.503000000    -2.927000000    -0.626000000
H     5.426000000    -2.371000000    -2.221000000
C     3.584000000    -3.097000000    -1.536000000
C     2.736000000    -2.889000000    -2.625000000
C     1.555000000    -3.604000000    -2.776000000
H     0.915000000    -3.338000000    -3.613000000
C     1.059000000    -4.344000000    -1.692000000
O    -0.234000000    -4.743000000    -1.669000000
C    -1.225000000    -3.987000000    -0.846000000
H    -0.689000000    -3.098000000    -0.482000000
C    -2.454000000    -3.588000000    -1.652000000
C    -3.684000000    -3.537000000    -1.014000000
H    -3.818000000    -4.016000000    -0.048000000
C    -2.309000000    -3.167000000    -2.986000000
H    -1.377000000    -3.428000000    -3.482000000
C    -3.448000000    -2.689000000    -3.663000000
O    -3.442000000    -2.260000000    -4.992000000
C    -4.669000000    -2.536000000    -2.936000000
H    -5.567000000    -2.154000000    -3.414000000
C    -4.779000000    -2.949000000    -1.625000000
O    -5.974000000    -2.743000000    -1.054000000
C    -6.354000000    -2.803000000     0.326000000
C    -6.357000000    -1.616000000     1.102000000
H    -5.995000000    -0.778000000     0.511000000
C    -6.723000000    -4.000000000     0.902000000
H    -6.855000000    -4.861000000     0.252000000
C    -7.118000000    -4.057000000     2.229000000
H    -7.270000000    -4.978000000     2.786000000
C    -7.083000000    -2.929000000     3.027000000
H    -7.383000000    -3.055000000     4.064000000
C    -6.640000000    -1.735000000     2.453000000
O    -6.458000000    -0.665000000     3.293000000
C    -5.298000000     0.053000000     3.347000000
C    -5.276000000     1.474000000     3.411000000
H    -6.198000000     2.040000000     3.307000000
C    -4.098000000     2.040000000     3.622000000
O    -4.077000000     3.436000000     3.828000000
C    -2.947000000     4.162000000     4.212000000
C    -2.203000000     4.778000000     3.240000000
H    -2.419000000     4.778000000     2.174000000
C    -2.637000000     4.303000000     5.582000000
H    -3.165000000     3.781000000     6.375000000
C    -1.597000000     5.131000000     5.875000000
H    -1.270000000     5.193000000     6.910000000
C    -0.844000000     5.839000000     4.924000000
H    -0.104000000     6.543000000     5.295000000
C    -1.244000000     5.711000000     3.585000000
O    -0.623000000     6.451000000     2.644000000
C     0.273000000     5.790000000     1.827000000
C     0.801000000     6.518000000     0.728000000
H     0.389000000     7.507000000     0.544000000
C     1.794000000     5.948000000    -0.158000000
O     2.230000000     6.682000000    -1.217000000
C     2.888000000     6.263000000    -2.376000000
C     2.369000000     5.233000000    -3.140000000
H     1.396000000     4.874000000    -2.815000000
C     4.206000000     6.576000000    -2.583000000
H     4.751000000     7.219000000    -1.895000000
C     4.932000000     6.109000000    -3.690000000
H     5.935000000     6.470000000    -3.902000000
C     4.323000000     5.220000000    -4.545000000
H     4.651000000     5.033000000    -5.564000000
C     3.008000000     4.776000000    -4.281000000
O     2.358000000     4.050000000    -5.251000000
C     1.980000000     2.691000000    -5.199000000
C     1.120000000     2.090000000    -6.142000000
H     0.709000000     2.690000000    -6.950000000
C     0.769000000     0.768000000    -6.096000000
O    -0.043000000     0.283000000    -7.149000000
C    -0.710000000    -0.908000000    -7.016000000
C    -0.059000000    -2.129000000    -7.255000000
H     0.872000000    -2.108000000    -7.816000000
C    -0.568000000    -3.411000000    -6.879000000
H    -0.072000000    -4.323000000    -7.203000000
C    -1.765000000    -3.420000000    -6.172000000
H    -2.127000000    -4.380000000    -5.813000000
C    -2.384000000    -2.211000000    -5.860000000
C    -1.848000000    -0.997000000    -6.267000000
H    -2.286000000    -0.033000000    -6.018000000
C    -1.839000000     0.395000000    -2.353000000
H    -2.045000000     0.400000000    -3.420000000
C    -0.545000000     0.317000000    -1.775000000
H     0.314000000     0.087000000    -2.401000000
C    -0.260000000     0.456000000    -0.465000000
H     0.772000000     0.368000000    -0.116000000
C    -1.364000000     0.665000000     0.381000000
H    -1.224000000     0.704000000     1.458000000
C    -2.591000000     0.848000000    -0.108000000
H    -3.414000000     1.002000000     0.585000000
C    -2.847000000     0.760000000    -1.487000000
C    -4.245000000     0.968000000    -2.063000000
O    -5.280000000     0.990000000    -1.403000000
O    -4.350000000     1.211000000    -3.212000000
O    -7.308000000     1.505000000     0.021000000
H    -7.299000000     2.453000000     0.148000000
H    -6.457000000     1.307000000    -0.368000000
O    -1.513000000     5.118000000    -2.579000000
H    -1.774000000     6.014000000    -2.792000000
H    -0.785000000     4.933000000    -3.173000000
O    -2.678000000     3.394000000    -7.172000000
H    -3.107000000     4.060000000    -7.709000000
H    -2.662000000     3.770000000    -6.292000000
O    -2.515000000     3.850000000    -0.250000000
H    -2.416000000     4.390000000    -1.034000000
H    -2.004000000     3.062000000    -0.436000000
O    -4.911000000     6.976000000    -2.106000000
H    -5.818000000     6.669000000    -2.081000000
H    -4.692000000     6.999000000    -3.037000000
O    -3.912000000     0.927000000    -7.852000000
H    -3.170000000     1.400000000    -7.477000000
H    -4.609000000     1.021000000    -7.202000000
O    -7.006000000    -0.272000000    -2.995000000
H    -7.567000000    -0.554000000    -2.273000000
H    -6.235000000     0.102000000    -2.568000000
O    -9.492000000     1.863000000    -2.604000000
H    -9.185000000     2.519000000    -3.231000000
H    -8.697000000     1.407000000    -2.328000000
O    -5.526000000     0.918000000    -5.478000000
H    -5.056000000     0.844000000    -4.647000000
H    -5.815000000     1.830000000    -5.509000000
O    -4.816000000     5.173000000     0.711000000
H    -4.511000000     5.301000000     1.609000000
H    -4.109000000     4.689000000     0.284000000
O    -6.486000000     3.127000000    -2.662000000
H    -6.620000000     3.287000000    -1.728000000
H    -5.815000000     2.446000000    -2.695000000
O    -7.537000000     4.341000000     0.096000000
H    -6.698000000     4.728000000     0.344000000
H    -7.843000000     4.880000000    -0.633000000
O    -3.134000000     3.306000000    -4.234000000
H    -3.587000000     2.546000000    -3.869000000
H    -2.625000000     3.655000000    -3.502000000
O    -8.571000000    -0.765000000    -0.811000000
H    -8.312000000     0.099000000    -0.490000000
H    -9.163000000    -1.102000000    -0.138000000
O    -8.568000000     0.894000000    -5.304000000
H    -8.638000000     0.139000000    -5.888000000
H    -7.777000000     0.729000000    -4.791000000
O    -5.902000000    -1.907000000    -6.488000000
H    -6.844000000    -1.757000000    -6.407000000
H    -5.507000000    -1.054000000    -6.307000000
O    -7.235000000     5.768000000    -2.845000000
H    -7.628000000     6.297000000    -3.539000000
H    -7.415000000     4.864000000    -3.102000000
O    -5.733000000     3.750000000    -5.186000000
H    -4.800000000     3.772000000    -4.973000000
H    -6.163000000     3.534000000    -4.358000000
O    -9.080000000    -3.682000000    -1.847000000
H    -9.741000000    -3.924000000    -1.199000000
H    -8.493000000    -3.086000000    -1.381000000
