215
-1466.52525
C    -2.910000000     1.451000000     4.048000000
H    -1.986000000     2.024000000     4.033000000
C    -2.785000000     0.051000000     3.999000000
C    -3.897000000    -0.692000000     3.630000000
H    -3.778000000    -1.767000000     3.740000000
C    -1.408000000    -0.606000000     4.073000000
O    -0.572000000     0.131000000     5.002000000
H    -1.029000000    -0.464000000     3.051000000
O    -1.465000000    -1.949000000     4.451000000
C    -0.674000000    -2.821000000     3.761000000
C    -1.246000000    -3.649000000     2.778000000
H    -2.326000000    -3.762000000     2.729000000
C    -0.470000000    -4.268000000     1.803000000
O    -1.050000000    -4.777000000     0.699000000
C     0.908000000    -4.185000000     1.978000000
C     1.833000000    -4.906000000     0.936000000
H     2.665000000    -5.375000000     1.467000000
C     2.297000000    -4.131000000    -0.234000000
C     3.481000000    -3.446000000    -0.209000000
H     3.981000000    -3.422000000     0.756000000
H     1.209000000    -5.690000000     0.501000000
C     1.493000000    -3.526000000     3.043000000
H     2.567000000    -3.522000000     3.209000000
C     0.684000000    -2.763000000     3.914000000
C     1.332000000    -2.069000000     5.118000000
H     2.226000000    -2.612000000     5.433000000
H     0.642000000    -1.983000000     5.960000000
C     1.637000000    -0.704000000     4.528000000
C     2.902000000    -0.455000000     3.993000000
H     3.659000000    -1.228000000     3.893000000
C     0.706000000     0.301000000     4.521000000
C     1.042000000     1.618000000     4.017000000
H     0.284000000     2.397000000     4.022000000
C     2.291000000     1.817000000     3.440000000
O     2.521000000     2.973000000     2.854000000
C     2.639000000     3.043000000     1.418000000
C     1.755000000     4.224000000     0.920000000
C     1.800000000     4.514000000    -0.411000000
H     2.532000000     4.120000000    -1.112000000
C     0.832000000     4.816000000     1.791000000
H     0.751000000     4.456000000     2.814000000
O     4.037000000     3.056000000     0.927000000
H     2.210000000     2.165000000     0.913000000
C     3.185000000     0.757000000     3.358000000
C     4.611000000     0.923000000     2.744000000
H     5.200000000     0.160000000     3.258000000
H     4.971000000     1.897000000     3.082000000
C     4.688000000     0.771000000     1.272000000
C     5.056000000    -0.449000000     0.720000000
H     5.247000000    -1.269000000     1.408000000
C     4.412000000     1.837000000     0.389000000
C     4.416000000     1.731000000    -0.993000000
H     4.236000000     2.577000000    -1.651000000
C     4.602000000     0.477000000    -1.519000000
O     4.445000000     0.252000000    -2.841000000
C     3.266000000    -0.398000000    -3.278000000
C     2.575000000     0.286000000    -4.471000000
C     2.688000000     1.695000000    -4.665000000
H     3.489000000     2.257000000    -4.191000000
C     1.636000000    -0.455000000    -5.182000000
H     1.486000000    -1.518000000    -5.013000000
O     3.549000000    -1.763000000    -3.492000000
H     2.462000000    -0.332000000    -2.530000000
C     4.946000000    -0.611000000    -0.661000000
C     5.287000000    -1.988000000    -1.288000000
H     5.973000000    -2.439000000    -0.568000000
H     5.791000000    -1.956000000    -2.256000000
C     3.921000000    -2.797000000    -1.365000000
C     3.144000000    -2.644000000    -2.493000000
C     1.895000000    -3.299000000    -2.530000000
H     1.195000000    -3.253000000    -3.360000000
C     1.477000000    -4.066000000    -1.398000000
O     0.184000000    -4.554000000    -1.425000000
C    -0.827000000    -3.974000000    -0.477000000
H    -0.373000000    -3.034000000    -0.131000000
C    -2.106000000    -3.709000000    -1.148000000
C    -3.313000000    -4.031000000    -0.546000000
H    -3.302000000    -4.394000000     0.478000000
C    -2.121000000    -3.236000000    -2.441000000
H    -1.249000000    -2.945000000    -3.022000000
C    -3.394000000    -3.099000000    -3.096000000
O    -3.513000000    -2.606000000    -4.357000000
C    -4.595000000    -3.349000000    -2.415000000
H    -5.496000000    -3.147000000    -2.989000000
C    -4.514000000    -3.901000000    -1.161000000
O    -5.647000000    -4.183000000    -0.487000000
C    -5.998000000    -3.799000000     0.797000000
C    -5.802000000    -2.504000000     1.298000000
H    -5.361000000    -1.816000000     0.581000000
C    -6.707000000    -4.648000000     1.653000000
H    -6.895000000    -5.658000000     1.296000000
C    -7.124000000    -4.257000000     2.956000000
H    -7.699000000    -5.000000000     3.503000000
C    -6.999000000    -2.931000000     3.360000000
H    -7.420000000    -2.509000000     4.269000000
C    -6.317000000    -2.041000000     2.538000000
O    -6.255000000    -0.736000000     2.800000000
C    -5.108000000    -0.017000000     3.317000000
C    -5.221000000     1.330000000     3.446000000
H    -6.189000000     1.737000000     3.162000000
C    -4.142000000     2.098000000     3.793000000
O    -4.254000000     3.458000000     3.591000000
C    -3.381000000     4.459000000     3.930000000
C    -2.615000000     4.982000000     2.878000000
H    -2.679000000     4.555000000     1.880000000
C    -3.245000000     4.909000000     5.227000000
H    -3.979000000     4.512000000     5.924000000
C    -2.265000000     5.939000000     5.478000000
H    -2.054000000     6.273000000     6.491000000
C    -1.470000000     6.466000000     4.461000000
H    -0.660000000     7.163000000     4.659000000
C    -1.725000000     5.997000000     3.178000000
O    -0.923000000     6.532000000     2.160000000
C    -0.032000000     5.865000000     1.346000000
C     0.012000000     6.100000000    -0.012000000
H    -0.553000000     6.911000000    -0.465000000
C     0.851000000     5.410000000    -0.850000000
O     0.683000000     5.726000000    -2.188000000
C     1.656000000     5.410000000    -3.140000000
C     1.399000000     4.668000000    -4.277000000
H     0.383000000     4.293000000    -4.369000000
C     2.930000000     5.958000000    -3.032000000
H     3.171000000     6.503000000    -2.124000000
C     3.971000000     5.682000000    -3.853000000
H     4.936000000     6.155000000    -3.692000000
C     3.748000000     4.821000000    -4.969000000
H     4.524000000     4.477000000    -5.647000000
C     2.425000000     4.468000000    -5.184000000
O     2.088000000     3.564000000    -6.102000000
C     1.943000000     2.220000000    -5.714000000
C     0.985000000     1.480000000    -6.397000000
H     0.403000000     1.996000000    -7.157000000
C     0.760000000     0.151000000    -6.092000000
O     0.009000000    -0.583000000    -6.909000000
C    -0.731000000    -1.658000000    -6.511000000
C    -0.535000000    -2.884000000    -7.175000000
H     0.175000000    -2.932000000    -7.996000000
C    -1.305000000    -4.036000000    -6.901000000
H    -1.072000000    -4.978000000    -7.391000000
C    -2.255000000    -3.954000000    -5.913000000
H    -2.847000000    -4.858000000    -5.795000000
C    -2.471000000    -2.726000000    -5.209000000
C    -1.744000000    -1.608000000    -5.479000000
H    -1.964000000    -0.693000000    -4.935000000
C     0.045000000     0.563000000    -1.649000000
H     0.537000000     1.138000000    -2.430000000
C     0.767000000     0.020000000    -0.558000000
H     1.830000000     0.236000000    -0.492000000
C     0.155000000    -0.590000000     0.560000000
H     0.762000000    -0.798000000     1.462000000
C    -1.139000000    -0.942000000     0.376000000
H    -1.583000000    -1.575000000     1.141000000
C    -1.898000000    -0.486000000    -0.806000000
H    -2.946000000    -0.774000000    -0.841000000
C    -1.325000000     0.356000000    -1.739000000
C    -2.104000000     0.926000000    -2.864000000
O    -3.270000000     0.731000000    -2.942000000
O    -1.566000000     1.777000000    -3.556000000
O    -5.054000000     0.875000000    -0.873000000
H    -4.596000000     1.428000000    -0.239000000
H    -4.460000000     0.828000000    -1.622000000
O    -5.671000000    -2.776000000    -7.007000000
H    -5.223000000    -2.397000000    -6.251000000
H    -5.183000000    -2.447000000    -7.763000000
O    -4.748000000     5.309000000    -4.811000000
H    -3.932000000     5.497000000    -5.275000000
H    -4.552000000     4.535000000    -4.284000000
O    -0.943000000     2.873000000     0.178000000
H    -0.097000000     2.876000000    -0.271000000
H    -1.280000000     1.987000000     0.048000000
O    -2.006000000     4.348000000    -4.401000000
H    -2.121000000     4.796000000    -3.563000000
H    -1.863000000     3.432000000    -4.166000000
O    -5.229000000     0.183000000    -4.673000000
H    -4.613000000     0.170000000    -3.940000000
H    -5.148000000     1.065000000    -5.038000000
O    -4.503000000     3.012000000    -3.142000000
H    -3.904000000     3.557000000    -2.632000000
H    -4.064000000     2.163000000    -3.200000000
O    -2.093000000     2.065000000    -6.336000000
H    -1.976000000     1.161000000    -6.625000000
H    -1.943000000     2.036000000    -5.391000000
O    -2.339000000     4.711000000    -1.499000000
H    -1.973000000     4.126000000    -0.836000000
H    -2.679000000     5.454000000    -1.000000000
O    -3.406000000     2.215000000     0.837000000
H    -3.245000000     1.744000000     1.654000000
H    -2.611000000     2.730000000     0.697000000
O    -7.532000000    -1.090000000    -3.967000000
H    -7.636000000    -1.756000000    -4.646000000
H    -6.898000000    -0.473000000    -4.331000000
O    -2.456000000     0.659000000    -8.812000000
H    -2.305000000     1.470000000    -9.297000000
H    -2.613000000     0.000000000    -9.488000000
O    -6.437000000     6.132000000    -2.877000000
H    -6.676000000     5.250000000    -2.591000000
H    -5.722000000     5.996000000    -3.498000000
O    -1.035000000     4.184000000    -7.325000000
H    -1.467000000     3.362000000    -7.092000000
H    -0.802000000     4.579000000    -6.485000000
O    -7.129000000    -0.584000000    -1.310000000
H    -6.948000000    -0.743000000    -2.236000000
H    -6.479000000     0.067000000    -1.047000000
O    -3.170000000     5.394000000    -8.090000000
H    -2.455000000     4.803000000    -7.855000000
H    -2.800000000     5.959000000    -8.768000000
O    -4.847000000     2.514000000    -6.213000000
H    -3.962000000     2.175000000    -6.348000000
H    -4.717000000     3.421000000    -5.937000000
O    -7.065000000     3.542000000    -2.213000000
H    -6.298000000     3.372000000    -2.761000000
H    -7.083000000     2.812000000    -1.594000000
O    -7.799000000     0.638000000     1.105000000
H    -7.177000000     0.375000000     1.783000000
H    -7.540000000     0.133000000     0.334000000
