215
-1456.38424
C    -2.759000000     1.397000000     3.298000000
H    -1.801000000     1.908000000     3.260000000
C    -2.672000000     0.109000000     3.767000000
C    -3.811000000    -0.678000000     3.717000000
H    -3.657000000    -1.728000000     3.954000000
C    -1.248000000    -0.487000000     3.932000000
O    -0.388000000     0.268000000     4.867000000
H    -0.784000000    -0.459000000     2.935000000
O    -1.326000000    -1.898000000     4.270000000
C    -0.593000000    -2.902000000     3.724000000
C    -1.151000000    -3.608000000     2.654000000
H    -2.214000000    -3.565000000     2.430000000
C    -0.350000000    -4.430000000     1.833000000
O    -0.841000000    -5.007000000     0.718000000
C     1.032000000    -4.496000000     2.036000000
C     2.018000000    -5.259000000     1.103000000
H     2.856000000    -5.510000000     1.757000000
C     2.343000000    -4.425000000    -0.137000000
C     3.535000000    -3.707000000    -0.242000000
H     4.280000000    -3.794000000     0.546000000
H     1.574000000    -6.200000000     0.771000000
C     1.519000000    -3.908000000     3.203000000
H     2.552000000    -4.106000000     3.476000000
C     0.761000000    -3.009000000     3.965000000
C     1.462000000    -2.131000000     5.036000000
H     2.374000000    -2.666000000     5.310000000
H     0.872000000    -2.064000000     5.952000000
C     1.820000000    -0.695000000     4.517000000
C     3.066000000    -0.446000000     3.973000000
H     3.812000000    -1.236000000     3.998000000
C     0.897000000     0.388000000     4.603000000
C     1.268000000     1.570000000     3.944000000
H     0.525000000     2.354000000     3.824000000
C     2.516000000     1.782000000     3.486000000
O     2.735000000     3.082000000     3.002000000
C     2.647000000     3.246000000     1.607000000
C     1.961000000     4.554000000     1.185000000
C     2.431000000     5.206000000     0.011000000
H     3.355000000     4.837000000    -0.426000000
C     0.899000000     5.023000000     1.876000000
H     0.591000000     4.564000000     2.812000000
O     3.991000000     3.127000000     1.136000000
H     2.056000000     2.388000000     1.253000000
C     3.392000000     0.756000000     3.406000000
C     4.784000000     0.978000000     2.753000000
H     5.467000000     0.298000000     3.266000000
H     5.206000000     1.979000000     2.862000000
C     4.792000000     0.823000000     1.285000000
C     5.123000000    -0.368000000     0.661000000
H     5.360000000    -1.215000000     1.300000000
C     4.392000000     1.910000000     0.483000000
C     4.150000000     1.691000000    -0.840000000
H     3.834000000     2.514000000    -1.475000000
C     4.391000000     0.444000000    -1.440000000
O     3.929000000     0.330000000    -2.711000000
C     2.680000000    -0.376000000    -2.948000000
C     1.842000000     0.386000000    -3.969000000
C     1.868000000     1.780000000    -3.952000000
H     2.634000000     2.281000000    -3.366000000
C     0.829000000    -0.292000000    -4.676000000
H     0.657000000    -1.365000000    -4.640000000
O     2.967000000    -1.701000000    -3.282000000
H     2.110000000    -0.375000000    -2.007000000
C     4.901000000    -0.624000000    -0.654000000
C     5.178000000    -2.034000000    -1.180000000
H     5.949000000    -2.498000000    -0.561000000
H     5.678000000    -2.028000000    -2.150000000
C     3.906000000    -2.892000000    -1.350000000
C     2.885000000    -2.709000000    -2.298000000
C     1.765000000    -3.487000000    -2.327000000
H     0.991000000    -3.418000000    -3.088000000
C     1.473000000    -4.346000000    -1.258000000
O     0.207000000    -4.912000000    -1.258000000
C    -0.789000000    -4.280000000    -0.477000000
H    -0.479000000    -3.239000000    -0.308000000
C    -2.102000000    -4.167000000    -1.280000000
C    -3.294000000    -4.023000000    -0.594000000
H    -3.226000000    -3.996000000     0.491000000
C    -2.151000000    -4.166000000    -2.704000000
H    -1.205000000    -4.221000000    -3.238000000
C    -3.420000000    -3.956000000    -3.293000000
O    -3.500000000    -3.891000000    -4.629000000
C    -4.603000000    -3.841000000    -2.622000000
H    -5.517000000    -3.746000000    -3.202000000
C    -4.508000000    -3.828000000    -1.232000000
O    -5.688000000    -3.781000000    -0.606000000
C    -5.828000000    -3.669000000     0.809000000
C    -5.797000000    -2.385000000     1.398000000
H    -5.625000000    -1.546000000     0.728000000
C    -6.398000000    -4.733000000     1.515000000
H    -6.570000000    -5.652000000     0.961000000
C    -6.628000000    -4.526000000     2.915000000
H    -7.116000000    -5.370000000     3.396000000
C    -6.507000000    -3.296000000     3.485000000
H    -6.844000000    -3.205000000     4.514000000
C    -6.178000000    -2.200000000     2.749000000
O    -6.148000000    -0.983000000     3.408000000
C    -5.068000000    -0.192000000     3.363000000
C    -5.204000000     1.120000000     3.007000000
H    -6.139000000     1.514000000     2.616000000
C    -3.998000000     1.913000000     2.992000000
O    -4.220000000     3.184000000     2.536000000
C    -3.455000000     4.199000000     3.010000000
C    -2.665000000     5.030000000     2.157000000
H    -2.551000000     4.785000000     1.104000000
C    -3.343000000     4.410000000     4.379000000
H    -3.970000000     3.896000000     5.104000000
C    -2.461000000     5.335000000     4.874000000
H    -2.363000000     5.560000000     5.933000000
C    -1.597000000     6.026000000     4.008000000
H    -0.840000000     6.716000000     4.373000000
C    -1.816000000     5.984000000     2.617000000
O    -0.929000000     6.693000000     1.880000000
C     0.215000000     6.129000000     1.359000000
C     0.741000000     6.844000000     0.282000000
H     0.125000000     7.613000000    -0.176000000
C     1.826000000     6.339000000    -0.419000000
O     2.287000000     7.024000000    -1.510000000
C     2.480000000     6.413000000    -2.743000000
C     1.549000000     5.499000000    -3.246000000
H     0.595000000     5.408000000    -2.732000000
C     3.580000000     6.762000000    -3.489000000
H     4.215000000     7.547000000    -3.086000000
C     3.818000000     6.080000000    -4.731000000
H     4.733000000     6.390000000    -5.229000000
C     2.935000000     5.076000000    -5.126000000
H     3.141000000     4.534000000    -6.045000000
C     1.816000000     4.729000000    -4.392000000
O     0.929000000     3.819000000    -4.892000000
C     1.034000000     2.498000000    -4.813000000
C     0.032000000     1.890000000    -5.532000000
H    -0.749000000     2.434000000    -6.057000000
C     0.028000000     0.464000000    -5.577000000
O    -0.962000000    -0.136000000    -6.345000000
C    -1.231000000    -1.493000000    -6.284000000
C    -0.696000000    -2.309000000    -7.238000000
H     0.065000000    -1.959000000    -7.931000000
C    -1.113000000    -3.636000000    -7.341000000
H    -0.759000000    -4.270000000    -8.150000000
C    -2.038000000    -4.167000000    -6.439000000
H    -2.209000000    -5.238000000    -6.362000000
C    -2.504000000    -3.307000000    -5.425000000
C    -2.139000000    -1.990000000    -5.390000000
H    -2.520000000    -1.360000000    -4.590000000
C    -0.873000000     2.155000000    -1.860000000
H    -0.962000000     3.042000000    -2.482000000
C     0.286000000     1.736000000    -1.233000000
H     1.207000000     2.292000000    -1.392000000
C     0.311000000     0.632000000    -0.378000000
H     1.131000000     0.547000000     0.378000000
C    -0.794000000    -0.132000000    -0.256000000
H    -0.727000000    -1.012000000     0.379000000
C    -1.988000000     0.244000000    -0.891000000
H    -2.855000000    -0.403000000    -0.788000000
C    -2.024000000     1.355000000    -1.709000000
C    -3.240000000     1.658000000    -2.482000000
O    -4.163000000     0.852000000    -2.489000000
O    -3.311000000     2.663000000    -3.152000000
O    -5.891000000     0.876000000    -0.402000000
H    -5.803000000     1.797000000    -0.157000000
H    -5.275000000     0.760000000    -1.125000000
O    -1.627000000     6.533000000    -2.398000000
H    -2.409000000     6.846000000    -1.943000000
H    -1.959000000     5.913000000    -3.047000000
O    -2.246000000     4.685000000    -7.617000000
H    -2.638000000     3.985000000    -7.095000000
H    -1.482000000     4.279000000    -8.027000000
O    -5.350000000     4.734000000    -0.995000000
H    -4.822000000     5.511000000    -1.182000000
H    -4.819000000     4.003000000    -1.309000000
O    -4.057000000     7.392000000    -1.635000000
H    -3.993000000     8.165000000    -1.074000000
H    -4.490000000     7.707000000    -2.428000000
O    -5.457000000     0.515000000    -4.918000000
H    -5.462000000    -0.361000000    -5.305000000
H    -4.965000000     0.414000000    -4.104000000
O    -0.685000000     6.047000000    -5.844000000
H    -0.372000000     5.171000000    -5.617000000
H    -1.362000000     5.896000000    -6.504000000
O    -8.886000000    -1.187000000    -3.663000000
H    -8.186000000    -1.365000000    -3.035000000
H    -9.669000000    -1.075000000    -3.124000000
O    -5.023000000     4.939000000    -6.262000000
H    -5.683000000     4.474000000    -6.776000000
H    -4.957000000     4.439000000    -5.448000000
O    -3.141000000     2.668000000    -5.822000000
H    -3.349000000     1.856000000    -6.284000000
H    -3.255000000     2.453000000    -4.896000000
O    -5.932000000     6.405000000    -3.819000000
H    -5.899000000     5.487000000    -3.549000000
H    -6.853000000     6.648000000    -3.732000000
O    -7.134000000     3.547000000     0.453000000
H    -6.913000000     3.765000000     1.358000000
H    -6.641000000     4.177000000    -0.073000000
O    -7.831000000     1.734000000    -3.967000000
H    -8.590000000     1.231000000    -4.261000000
H    -7.091000000     1.351000000    -4.438000000
O    -8.637000000     2.667000000    -1.457000000
H    -7.910000000     2.919000000    -0.887000000
H    -8.215000000     2.322000000    -2.244000000
O    -2.884000000     5.287000000    -4.420000000
H    -2.653000000     4.364000000    -4.523000000
H    -3.841000000     5.292000000    -4.385000000
O    -6.893000000    -1.348000000    -1.676000000
H    -6.885000000    -0.569000000    -1.120000000
H    -6.087000000    -1.812000000    -1.449000000
O    -6.686000000     1.152000000    -7.898000000
H    -6.531000000     1.171000000    -6.953000000
H    -5.948000000     0.654000000    -8.251000000
O    -5.523000000     3.775000000    -3.692000000
H    -4.697000000     3.296000000    -3.626000000
H    -6.194000000     3.092000000    -3.706000000
O    -5.268000000    -1.956000000    -6.581000000
H    -4.889000000    -1.845000000    -7.453000000
H    -4.612000000    -2.458000000    -6.098000000
