215
-1447.08858
C    -2.868000000     1.680000000     4.453000000
H    -2.024000000     2.283000000     4.776000000
C    -2.718000000     0.323000000     4.171000000
C    -3.753000000    -0.437000000     3.712000000
H    -3.686000000    -1.464000000     3.363000000
C    -1.355000000    -0.332000000     4.144000000
O    -0.368000000     0.344000000     5.041000000
H    -0.975000000    -0.225000000     3.117000000
O    -1.421000000    -1.730000000     4.504000000
C    -0.579000000    -2.636000000     3.938000000
C    -1.163000000    -3.460000000     2.981000000
H    -2.218000000    -3.318000000     2.763000000
C    -0.464000000    -4.355000000     2.198000000
O    -1.191000000    -4.774000000     1.106000000
C     0.953000000    -4.347000000     2.332000000
C     1.791000000    -5.142000000     1.288000000
H     2.680000000    -5.441000000     1.846000000
C     2.069000000    -4.357000000     0.077000000
C     3.383000000    -3.815000000    -0.127000000
H     4.088000000    -3.827000000     0.700000000
H     1.280000000    -6.044000000     0.942000000
C     1.585000000    -3.610000000     3.343000000
H     2.669000000    -3.654000000     3.402000000
C     0.863000000    -2.718000000     4.132000000
C     1.611000000    -1.831000000     5.122000000
H     2.482000000    -2.383000000     5.481000000
H     0.871000000    -1.759000000     5.922000000
C     1.813000000    -0.441000000     4.504000000
C     3.076000000    -0.184000000     3.967000000
H     3.807000000    -0.988000000     3.953000000
C     0.815000000     0.521000000     4.482000000
C     1.061000000     1.765000000     3.941000000
H     0.221000000     2.438000000     3.793000000
C     2.331000000     1.997000000     3.293000000
O     2.405000000     3.108000000     2.443000000
C     2.393000000     2.880000000     1.032000000
C     1.460000000     3.940000000     0.470000000
C     1.726000000     4.422000000    -0.796000000
H     2.607000000     4.015000000    -1.286000000
C     0.291000000     4.402000000     1.186000000
H     0.073000000     3.967000000     2.158000000
O     3.686000000     2.914000000     0.453000000
H     1.903000000     1.921000000     0.807000000
C     3.329000000     1.032000000     3.340000000
C     4.584000000     1.140000000     2.513000000
H     5.427000000     0.599000000     2.948000000
H     5.005000000     2.130000000     2.702000000
C     4.624000000     0.758000000     1.056000000
C     4.937000000    -0.602000000     0.657000000
H     5.072000000    -1.281000000     1.495000000
C     4.252000000     1.710000000     0.126000000
C     4.237000000     1.318000000    -1.223000000
H     4.078000000     2.097000000    -1.964000000
C     4.607000000     0.062000000    -1.641000000
O     4.311000000    -0.185000000    -2.965000000
C     2.993000000    -0.636000000    -3.187000000
C     2.346000000     0.085000000    -4.433000000
C     2.641000000     1.416000000    -4.742000000
H     3.459000000     1.904000000    -4.219000000
C     1.208000000    -0.490000000    -5.001000000
H     0.810000000    -1.466000000    -4.735000000
O     3.046000000    -2.105000000    -3.383000000
H     2.381000000    -0.339000000    -2.323000000
C     4.895000000    -0.929000000    -0.678000000
C     5.106000000    -2.324000000    -1.227000000
H     5.754000000    -2.859000000    -0.529000000
H     5.568000000    -2.353000000    -2.216000000
C     3.705000000    -3.011000000    -1.223000000
C     2.797000000    -2.872000000    -2.231000000
C     1.532000000    -3.460000000    -2.108000000
H     0.784000000    -3.431000000    -2.896000000
C     1.121000000    -4.101000000    -0.963000000
O    -0.149000000    -4.600000000    -0.971000000
C    -1.196000000    -4.046000000    -0.123000000
H    -0.900000000    -3.000000000     0.049000000
C    -2.447000000    -4.074000000    -0.998000000
C    -3.700000000    -4.074000000    -0.379000000
H    -3.776000000    -4.102000000     0.705000000
C    -2.388000000    -3.699000000    -2.397000000
H    -1.423000000    -3.526000000    -2.867000000
C    -3.551000000    -3.470000000    -3.100000000
O    -3.599000000    -2.904000000    -4.345000000
C    -4.781000000    -3.750000000    -2.460000000
H    -5.738000000    -3.548000000    -2.935000000
C    -4.828000000    -3.884000000    -1.078000000
O    -6.005000000    -3.925000000    -0.390000000
C    -6.211000000    -3.570000000     0.910000000
C    -6.018000000    -2.227000000     1.290000000
H    -5.802000000    -1.523000000     0.491000000
C    -6.591000000    -4.587000000     1.817000000
H    -6.727000000    -5.610000000     1.474000000
C    -6.795000000    -4.235000000     3.162000000
H    -7.105000000    -4.962000000     3.908000000
C    -6.539000000    -2.875000000     3.554000000
H    -6.610000000    -2.528000000     4.581000000
C    -6.283000000    -1.897000000     2.630000000
O    -6.099000000    -0.565000000     3.077000000
C    -5.004000000     0.110000000     3.557000000
C    -5.131000000     1.514000000     3.839000000
H    -6.110000000     1.933000000     3.623000000
C    -4.040000000     2.358000000     4.187000000
O    -4.168000000     3.757000000     4.421000000
C    -3.137000000     4.551000000     4.195000000
C    -2.874000000     4.932000000     2.866000000
H    -3.354000000     4.372000000     2.067000000
C    -2.552000000     5.254000000     5.249000000
H    -2.881000000     5.156000000     6.281000000
C    -1.452000000     6.095000000     4.944000000
H    -0.944000000     6.567000000     5.781000000
C    -1.042000000     6.294000000     3.643000000
H    -0.155000000     6.888000000     3.440000000
C    -1.838000000     5.819000000     2.560000000
O    -1.476000000     6.066000000     1.223000000
C    -0.459000000     5.427000000     0.604000000
C    -0.179000000     5.885000000    -0.618000000
H    -0.704000000     6.717000000    -1.081000000
C     0.963000000     5.447000000    -1.348000000
O     1.155000000     6.081000000    -2.477000000
C     2.119000000     5.601000000    -3.285000000
C     1.842000000     4.624000000    -4.216000000
H     0.928000000     4.058000000    -4.056000000
C     3.310000000     6.294000000    -3.318000000
H     3.482000000     7.138000000    -2.655000000
C     4.330000000     5.921000000    -4.242000000
H     5.303000000     6.394000000    -4.134000000
C     3.996000000     5.023000000    -5.239000000
H     4.757000000     4.639000000    -5.914000000
C     2.771000000     4.328000000    -5.202000000
O     2.335000000     3.390000000    -6.100000000
C     1.937000000     2.171000000    -5.675000000
C     0.960000000     1.502000000    -6.402000000
H     0.387000000     2.082000000    -7.121000000
C     0.576000000     0.210000000    -6.080000000
O    -0.477000000    -0.238000000    -6.819000000
C    -1.041000000    -1.433000000    -6.497000000
C    -0.446000000    -2.538000000    -7.050000000
H     0.315000000    -2.453000000    -7.820000000
C    -0.867000000    -3.779000000    -6.650000000
H    -0.380000000    -4.684000000    -7.006000000
C    -1.883000000    -3.921000000    -5.698000000
H    -2.104000000    -4.945000000    -5.408000000
C    -2.544000000    -2.784000000    -5.191000000
C    -2.115000000    -1.495000000    -5.598000000
H    -2.642000000    -0.588000000    -5.314000000
C    -0.632000000     1.822000000    -2.402000000
H    -0.178000000     2.626000000    -2.976000000
C     0.038000000     1.259000000    -1.335000000
H     0.983000000     1.729000000    -1.078000000
C    -0.447000000     0.317000000    -0.460000000
H     0.075000000    -0.001000000     0.451000000
C    -1.709000000    -0.102000000    -0.731000000
H    -2.253000000    -0.775000000    -0.073000000
C    -2.422000000     0.322000000    -1.909000000
H    -3.432000000     0.013000000    -2.163000000
C    -1.859000000     1.363000000    -2.756000000
C    -2.525000000     1.935000000    -4.006000000
O    -3.671000000     1.589000000    -4.285000000
O    -2.034000000     2.872000000    -4.634000000
O    -5.660000000     1.254000000    -2.758000000
H    -5.210000000     1.414000000    -1.928000000
H    -4.999000000     1.430000000    -3.427000000
O    -4.638000000    -0.354000000    -9.140000000
H    -4.182000000     0.062000000    -8.408000000
H    -3.937000000    -0.652000000    -9.720000000
O    -5.195000000     5.868000000    -6.210000000
H    -4.417000000     5.880000000    -6.767000000
H    -4.990000000     5.231000000    -5.525000000
O    -2.642000000     2.888000000    -0.065000000
H    -1.715000000     2.748000000    -0.256000000
H    -3.063000000     2.062000000    -0.303000000
O    -2.254000000     5.599000000    -3.993000000
H    -2.858000000     5.612000000    -3.250000000
H    -2.292000000     4.698000000    -4.316000000
O    -8.301000000     2.111000000    -2.436000000
H    -8.217000000     2.393000000    -1.526000000
H    -7.472000000     1.674000000    -2.629000000
O    -4.406000000     1.214000000    -6.674000000
H    -4.201000000     1.356000000    -5.750000000
H    -5.330000000     1.450000000    -6.754000000
O    -5.046000000     4.009000000    -4.100000000
H    -4.415000000     4.220000000    -3.411000000
H    -4.651000000     3.275000000    -4.570000000
O    -2.194000000     3.099000000    -7.208000000
H    -2.969000000     2.546000000    -7.308000000
H    -1.971000000     3.032000000    -6.279000000
O    -3.539000000     4.911000000    -1.746000000
H    -3.281000000     4.244000000    -1.109000000
H    -3.875000000     5.633000000    -1.214000000
O    -5.548000000     0.982000000     0.181000000
H    -5.638000000     0.373000000     0.915000000
H    -6.119000000     1.715000000     0.407000000
O    -6.664000000    -0.832000000    -6.617000000
H    -5.865000000    -0.496000000    -7.024000000
H    -7.267000000    -0.089000000    -6.626000000
O    -1.021000000     3.674000000    -9.648000000
H    -0.132000000     3.950000000    -9.427000000
H    -1.399000000     3.392000000    -8.815000000
O     0.797000000    -0.515000000    -9.657000000
H     0.115000000    -0.716000000    -9.016000000
H     1.545000000    -1.046000000    -9.385000000
O    -0.419000000     5.810000000    -6.154000000
H    -0.840000000     5.074000000    -6.598000000
H    -0.792000000     5.803000000    -5.272000000
O    -6.950000000    -1.056000000    -3.663000000
H    -6.725000000    -1.145000000    -4.589000000
H    -6.465000000    -0.284000000    -3.372000000
O    -3.177000000     5.814000000    -8.601000000
H    -3.454000000     5.716000000    -9.512000000
H    -2.843000000     4.951000000    -8.358000000
O    -7.075000000     1.795000000    -6.684000000
H    -7.713000000     2.503000000    -6.594000000
H    -7.184000000     1.488000000    -7.584000000
O    -7.692000000     4.173000000    -4.132000000
H    -6.738000000     4.220000000    -4.081000000
H    -7.923000000     3.408000000    -3.605000000
