215
-1470.09443
C    -2.494000000     1.689000000     4.218000000
H    -1.533000000     2.191000000     4.292000000
C    -2.510000000     0.304000000     4.162000000
C    -3.789000000    -0.312000000     4.048000000
H    -3.837000000    -1.391000000     3.930000000
C    -1.190000000    -0.414000000     4.201000000
O    -0.167000000     0.243000000     4.929000000
H    -0.855000000    -0.418000000     3.154000000
O    -1.325000000    -1.787000000     4.581000000
C    -0.775000000    -2.750000000     3.684000000
C    -1.689000000    -3.325000000     2.739000000
H    -2.727000000    -3.013000000     2.651000000
C    -1.121000000    -4.194000000     1.803000000
O    -1.881000000    -4.614000000     0.704000000
C     0.235000000    -4.537000000     1.813000000
C     0.833000000    -5.396000000     0.690000000
H     1.760000000    -5.883000000     1.000000000
C     1.261000000    -4.580000000    -0.485000000
C     2.584000000    -4.088000000    -0.442000000
H     3.209000000    -4.238000000     0.435000000
H     0.207000000    -6.210000000     0.318000000
C     1.038000000    -4.066000000     2.824000000
H     2.083000000    -4.355000000     2.905000000
C     0.595000000    -3.068000000     3.668000000
C     1.405000000    -2.402000000     4.763000000
H     2.254000000    -3.038000000     5.023000000
H     0.835000000    -2.286000000     5.687000000
C     1.857000000    -1.059000000     4.280000000
C     3.062000000    -1.008000000     3.670000000
H     3.539000000    -1.955000000     3.428000000
C     1.108000000     0.136000000     4.403000000
C     1.690000000     1.349000000     4.046000000
H     1.056000000     2.218000000     4.199000000
C     2.905000000     1.385000000     3.347000000
O     3.199000000     2.512000000     2.644000000
C     3.112000000     2.551000000     1.230000000
C     2.465000000     3.809000000     0.712000000
C     2.850000000     4.433000000    -0.549000000
H     3.566000000     3.973000000    -1.225000000
C     1.406000000     4.302000000     1.422000000
H     1.018000000     3.818000000     2.314000000
O     4.412000000     2.311000000     0.724000000
H     2.389000000     1.787000000     0.910000000
C     3.641000000     0.219000000     3.257000000
C     4.970000000     0.110000000     2.525000000
H     5.547000000    -0.749000000     2.874000000
H     5.613000000     0.991000000     2.558000000
C     4.743000000    -0.060000000     1.056000000
C     4.879000000    -1.336000000     0.444000000
H     5.229000000    -2.197000000     1.007000000
C     4.628000000     1.079000000     0.228000000
C     4.535000000     0.935000000    -1.142000000
H     4.383000000     1.769000000    -1.823000000
C     4.444000000    -0.342000000    -1.701000000
O     4.114000000    -0.471000000    -3.041000000
C     2.776000000    -0.810000000    -3.319000000
C     2.177000000     0.162000000    -4.384000000
C     2.628000000     1.540000000    -4.563000000
H     3.483000000     1.917000000    -4.007000000
C     0.925000000    -0.123000000    -4.959000000
H     0.411000000    -1.018000000    -4.616000000
O     2.675000000    -2.275000000    -3.650000000
H     2.290000000    -0.777000000    -2.333000000
C     4.640000000    -1.477000000    -0.942000000
C     4.475000000    -2.787000000    -1.612000000
H     5.127000000    -3.529000000    -1.146000000
H     4.920000000    -2.724000000    -2.607000000
C     3.052000000    -3.251000000    -1.525000000
C     2.178000000    -3.050000000    -2.602000000
C     0.879000000    -3.533000000    -2.634000000
H     0.130000000    -3.255000000    -3.372000000
C     0.403000000    -4.376000000    -1.570000000
O    -0.925000000    -4.587000000    -1.473000000
C    -1.738000000    -3.763000000    -0.493000000
H    -1.254000000    -2.811000000    -0.232000000
C    -3.055000000    -3.442000000    -1.105000000
C    -4.171000000    -3.214000000    -0.318000000
H    -4.130000000    -3.421000000     0.748000000
C    -3.143000000    -3.113000000    -2.452000000
H    -2.267000000    -3.183000000    -3.092000000
C    -4.330000000    -2.716000000    -3.013000000
O    -4.463000000    -2.403000000    -4.338000000
C    -5.516000000    -2.703000000    -2.221000000
H    -6.485000000    -2.421000000    -2.623000000
C    -5.449000000    -2.885000000    -0.884000000
O    -6.578000000    -2.933000000    -0.145000000
C    -6.556000000    -2.785000000     1.229000000
C    -6.190000000    -1.567000000     1.839000000
H    -5.960000000    -0.723000000     1.193000000
C    -6.901000000    -3.874000000     1.994000000
H    -7.267000000    -4.680000000     1.363000000
C    -6.947000000    -3.768000000     3.387000000
H    -7.318000000    -4.665000000     3.875000000
C    -6.645000000    -2.583000000     4.022000000
H    -6.653000000    -2.482000000     5.104000000
C    -6.311000000    -1.470000000     3.240000000
O    -6.159000000    -0.228000000     3.857000000
C    -4.957000000     0.425000000     4.005000000
C    -4.934000000     1.834000000     4.049000000
H    -5.824000000     2.451000000     3.964000000
C    -3.679000000     2.413000000     4.247000000
O    -3.664000000     3.803000000     4.239000000
C    -2.589000000     4.606000000     4.201000000
C    -1.988000000     4.837000000     2.926000000
H    -2.556000000     4.481000000     2.071000000
C    -1.813000000     4.915000000     5.349000000
H    -2.165000000     4.546000000     6.309000000
C    -0.596000000     5.667000000     5.259000000
H     0.010000000     5.972000000     6.109000000
C    -0.129000000     5.964000000     3.977000000
H     0.744000000     6.609000000     3.928000000
C    -0.786000000     5.505000000     2.837000000
O    -0.287000000     5.985000000     1.646000000
C     0.652000000     5.346000000     0.889000000
C     1.151000000     6.080000000    -0.211000000
H     0.639000000     7.006000000    -0.458000000
C     2.274000000     5.590000000    -0.898000000
O     2.637000000     6.431000000    -1.916000000
C     3.097000000     5.941000000    -3.178000000
C     2.393000000     4.976000000    -3.942000000
H     1.470000000     4.557000000    -3.549000000
C     4.332000000     6.454000000    -3.641000000
H     4.901000000     7.134000000    -3.013000000
C     4.953000000     5.911000000    -4.760000000
H     5.920000000     6.243000000    -5.128000000
C     4.250000000     4.913000000    -5.508000000
H     4.720000000     4.559000000    -6.422000000
C     3.032000000     4.434000000    -5.052000000
O     2.317000000     3.625000000    -5.848000000
C     1.929000000     2.355000000    -5.501000000
C     0.785000000     1.874000000    -6.150000000
H     0.274000000     2.396000000    -6.954000000
C     0.244000000     0.626000000    -5.875000000
O    -1.005000000     0.273000000    -6.265000000
C    -1.675000000    -0.953000000    -6.144000000
C    -1.128000000    -2.100000000    -6.708000000
H    -0.165000000    -2.038000000    -7.210000000
C    -1.680000000    -3.311000000    -6.528000000
H    -1.281000000    -4.199000000    -7.010000000
C    -2.749000000    -3.388000000    -5.671000000
H    -3.127000000    -4.380000000    -5.436000000
C    -3.362000000    -2.249000000    -5.194000000
C    -2.846000000    -0.942000000    -5.426000000
H    -3.308000000    -0.015000000    -5.098000000
C    -2.080000000     0.286000000    -1.531000000
H    -2.403000000    -0.025000000    -2.521000000
C    -0.784000000    -0.011000000    -1.215000000
H    -0.220000000    -0.665000000    -1.876000000
C    -0.225000000     0.488000000    -0.064000000
H     0.810000000     0.247000000     0.124000000
C    -0.954000000     1.305000000     0.825000000
H    -0.479000000     1.828000000     1.651000000
C    -2.272000000     1.473000000     0.559000000
H    -2.871000000     2.074000000     1.238000000
C    -2.913000000     0.955000000    -0.612000000
C    -4.339000000     1.219000000    -0.906000000
O    -5.021000000     1.856000000    -0.117000000
O    -4.829000000     0.838000000    -1.968000000
O    -4.113000000     4.598000000    -0.015000000
H    -4.383000000     4.987000000     0.817000000
H    -4.551000000     3.748000000    -0.036000000
O    -0.598000000     3.043000000    -2.463000000
H    -0.816000000     2.518000000    -3.233000000
H    -0.674000000     2.435000000    -1.728000000
O    -2.211000000     5.726000000    -1.274000000
H    -3.008000000     5.270000000    -1.006000000
H    -1.587000000     5.025000000    -1.465000000
O    -2.824000000     7.736000000     0.842000000
H    -2.165000000     8.310000000     0.450000000
H    -2.510000000     6.851000000     0.659000000
O    -4.674000000     2.586000000    -6.911000000
H    -4.820000000     2.259000000    -6.023000000
H    -5.173000000     1.991000000    -7.470000000
O    -9.285000000     1.828000000    -2.689000000
H    -9.033000000     1.160000000    -2.052000000
H   -10.241000000     1.845000000    -2.655000000
O    -7.185000000    -0.150000000    -1.825000000
H    -7.213000000    -0.943000000    -1.289000000
H    -6.284000000     0.163000000    -1.744000000
O    -7.427000000     1.470000000     1.289000000
H    -7.657000000     0.620000000     0.913000000
H    -6.628000000     1.727000000     0.829000000
O    -5.950000000    -0.071000000    -6.263000000
H    -5.347000000    -0.095000000    -5.519000000
H    -6.820000000    -0.115000000    -5.867000000
O    -8.890000000     1.604000000     3.924000000
H    -8.927000000     2.556000000     4.023000000
H    -8.567000000     1.469000000     3.033000000
O    -7.979000000    -0.362000000    -4.549000000
H    -8.899000000    -0.594000000    -4.672000000
H    -7.931000000    -0.047000000    -3.646000000
O    -7.091000000     5.095000000    -4.654000000
H    -6.725000000     4.931000000    -3.785000000
H    -8.031000000     5.196000000    -4.503000000
O    -9.902000000     2.474000000     0.135000000
H    -8.974000000     2.245000000     0.195000000
H    -9.910000000     3.430000000     0.092000000
O    -6.498000000     3.246000000    -2.098000000
H    -7.308000000     2.813000000    -2.370000000
H    -6.047000000     2.594000000    -1.562000000
O    -9.028000000    -1.135000000     0.271000000
H    -9.818000000    -0.947000000     0.778000000
H    -9.049000000    -2.083000000     0.138000000
O    -5.039000000     1.989000000    -4.343000000
H    -4.768000000     1.407000000    -3.634000000
H    -5.318000000     2.791000000    -3.901000000
O    -7.763000000     4.836000000    -0.216000000
H    -7.272000000     4.361000000    -0.886000000
H    -7.093000000     5.170000000     0.380000000
O    -5.454000000     6.237000000    -2.467000000
H    -4.792000000     6.324000000    -3.154000000
H    -5.214000000     5.434000000    -2.004000000
O    -5.961000000     4.622000000     2.191000000
H    -6.612000000     4.001000000     2.515000000
H    -5.598000000     5.023000000     2.981000000
