215
-1454.37602
C    -2.518000000     1.464000000     4.008000000
H    -1.647000000     2.074000000     4.233000000
C    -2.481000000     0.026000000     3.940000000
C    -3.672000000    -0.671000000     3.705000000
H    -3.674000000    -1.756000000     3.774000000
C    -1.084000000    -0.710000000     4.147000000
O    -0.103000000     0.056000000     4.929000000
H    -0.713000000    -0.752000000     3.112000000
O    -1.167000000    -1.995000000     4.588000000
C    -0.521000000    -2.875000000     3.810000000
C    -1.239000000    -3.594000000     2.843000000
H    -2.318000000    -3.465000000     2.841000000
C    -0.563000000    -4.267000000     1.806000000
O    -1.241000000    -4.852000000     0.775000000
C     0.788000000    -4.490000000     1.860000000
C     1.578000000    -5.375000000     0.843000000
H     2.566000000    -5.564000000     1.268000000
C     1.850000000    -4.587000000    -0.478000000
C     3.097000000    -3.899000000    -0.515000000
H     3.752000000    -3.977000000     0.350000000
H     0.975000000    -6.256000000     0.615000000
C     1.514000000    -3.797000000     2.867000000
H     2.591000000    -3.849000000     3.009000000
C     0.860000000    -2.956000000     3.784000000
C     1.754000000    -2.222000000     4.786000000
H     2.634000000    -2.841000000     4.974000000
H     1.159000000    -2.142000000     5.698000000
C     2.064000000    -0.796000000     4.273000000
C     3.281000000    -0.485000000     3.692000000
H     4.048000000    -1.242000000     3.555000000
C     1.141000000     0.254000000     4.392000000
C     1.430000000     1.552000000     3.977000000
H     0.689000000     2.319000000     4.189000000
C     2.617000000     1.813000000     3.269000000
O     2.807000000     3.023000000     2.623000000
C     2.617000000     3.090000000     1.195000000
C     1.755000000     4.298000000     0.751000000
C     1.946000000     4.842000000    -0.535000000
H     2.617000000     4.322000000    -1.215000000
C     0.989000000     5.003000000     1.680000000
H     0.835000000     4.650000000     2.696000000
O     3.898000000     3.043000000     0.438000000
H     2.143000000     2.132000000     0.934000000
C     3.536000000     0.796000000     3.173000000
C     4.853000000     1.013000000     2.465000000
H     5.606000000     0.399000000     2.963000000
H     5.199000000     2.039000000     2.607000000
C     4.756000000     0.671000000     0.965000000
C     4.824000000    -0.623000000     0.405000000
H     4.950000000    -1.445000000     1.105000000
C     4.451000000     1.773000000     0.091000000
C     4.333000000     1.541000000    -1.258000000
H     4.138000000     2.378000000    -1.923000000
C     4.461000000     0.252000000    -1.849000000
O     4.094000000     0.022000000    -3.103000000
C     2.787000000    -0.571000000    -3.353000000
C     2.006000000     0.239000000    -4.425000000
C     2.270000000     1.586000000    -4.645000000
H     3.123000000     2.004000000    -4.116000000
C     0.871000000    -0.328000000    -5.002000000
H     0.668000000    -1.355000000    -4.710000000
O     2.711000000    -2.003000000    -3.624000000
H     2.126000000    -0.531000000    -2.474000000
C     4.710000000    -0.827000000    -0.961000000
C     4.714000000    -2.251000000    -1.459000000
H     5.469000000    -2.763000000    -0.859000000
H     5.216000000    -2.260000000    -2.429000000
C     3.423000000    -3.042000000    -1.576000000
C     2.474000000    -2.887000000    -2.606000000
C     1.279000000    -3.544000000    -2.610000000
H     0.547000000    -3.386000000    -3.397000000
C     0.941000000    -4.350000000    -1.525000000
O    -0.374000000    -4.727000000    -1.399000000
C    -1.247000000    -4.069000000    -0.444000000
H    -0.895000000    -3.045000000    -0.254000000
C    -2.644000000    -3.934000000    -1.039000000
C    -3.799000000    -3.981000000    -0.304000000
H    -3.738000000    -4.085000000     0.776000000
C    -2.723000000    -3.667000000    -2.392000000
H    -1.855000000    -3.490000000    -3.021000000
C    -3.935000000    -3.543000000    -3.102000000
O    -4.034000000    -3.239000000    -4.425000000
C    -5.089000000    -3.644000000    -2.316000000
H    -6.078000000    -3.407000000    -2.699000000
C    -5.007000000    -3.757000000    -0.966000000
O    -6.186000000    -3.798000000    -0.194000000
C    -6.272000000    -3.520000000     1.203000000
C    -6.044000000    -2.242000000     1.618000000
H    -5.750000000    -1.479000000     0.902000000
C    -6.613000000    -4.424000000     2.140000000
H    -6.766000000    -5.439000000     1.782000000
C    -6.833000000    -4.083000000     3.512000000
H    -7.154000000    -4.782000000     4.280000000
C    -6.562000000    -2.813000000     3.928000000
H    -6.720000000    -2.559000000     4.973000000
C    -6.157000000    -1.871000000     2.986000000
O    -6.027000000    -0.533000000     3.280000000
C    -4.832000000     0.099000000     3.441000000
C    -4.816000000     1.457000000     3.294000000
H    -5.660000000     2.000000000     2.877000000
C    -3.637000000     2.141000000     3.541000000
O    -3.614000000     3.508000000     3.291000000
C    -2.664000000     4.392000000     3.631000000
C    -2.048000000     5.245000000     2.707000000
H    -2.225000000     5.001000000     1.663000000
C    -2.480000000     4.632000000     4.977000000
H    -3.079000000     4.106000000     5.717000000
C    -1.738000000     5.729000000     5.373000000
H    -1.599000000     5.979000000     6.422000000
C    -1.125000000     6.554000000     4.403000000
H    -0.529000000     7.388000000     4.767000000
C    -1.234000000     6.276000000     3.078000000
O    -0.298000000     6.923000000     2.297000000
C     0.435000000     6.196000000     1.370000000
C     0.753000000     6.842000000     0.187000000
H     0.335000000     7.819000000    -0.043000000
C     1.425000000     6.123000000    -0.821000000
O     1.515000000     6.720000000    -2.039000000
C     2.195000000     6.016000000    -3.095000000
C     1.541000000     5.131000000    -3.934000000
H     0.482000000     4.901000000    -3.848000000
C     3.587000000     6.303000000    -3.199000000
H     4.089000000     6.983000000    -2.515000000
C     4.410000000     5.594000000    -4.123000000
H     5.490000000     5.717000000    -4.129000000
C     3.747000000     4.712000000    -4.941000000
H     4.392000000     4.250000000    -5.684000000
C     2.360000000     4.493000000    -4.882000000
O     1.735000000     3.606000000    -5.762000000
C     1.469000000     2.284000000    -5.602000000
C     0.516000000     1.652000000    -6.374000000
H    -0.124000000     2.253000000    -7.015000000
C     0.140000000     0.339000000    -5.957000000
O    -0.962000000    -0.228000000    -6.589000000
C    -1.476000000    -1.506000000    -6.307000000
C    -0.676000000    -2.580000000    -6.730000000
H     0.213000000    -2.493000000    -7.350000000
C    -1.057000000    -3.908000000    -6.428000000
H    -0.488000000    -4.749000000    -6.815000000
C    -2.209000000    -4.127000000    -5.626000000
H    -2.531000000    -5.131000000    -5.361000000
C    -2.925000000    -2.994000000    -5.168000000
C    -2.642000000    -1.703000000    -5.554000000
H    -3.282000000    -0.839000000    -5.393000000
C    -2.215000000    -0.416000000    -1.783000000
H    -2.887000000    -0.704000000    -2.587000000
C    -0.884000000    -0.776000000    -1.745000000
H    -0.408000000    -1.188000000    -2.631000000
C    -0.126000000    -0.491000000    -0.600000000
H     0.984000000    -0.748000000    -0.604000000
C    -0.704000000     0.210000000     0.469000000
H    -0.103000000     0.524000000     1.319000000
C    -2.059000000     0.598000000     0.399000000
H    -2.446000000     1.166000000     1.241000000
C    -2.862000000     0.223000000    -0.709000000
C    -4.315000000     0.555000000    -0.831000000
O    -4.915000000     0.950000000     0.113000000
O    -4.947000000     0.376000000    -1.839000000
O    -4.807000000     3.555000000     0.499000000
H    -4.121000000     3.715000000     1.146000000
H    -4.776000000     2.610000000     0.347000000
O    -0.558000000     2.464000000    -2.154000000
H    -0.726000000     1.715000000    -1.582000000
H    -0.048000000     2.103000000    -2.879000000
O    -4.414000000     4.705000000    -6.083000000
H    -4.573000000     4.586000000    -5.146000000
H    -4.205000000     3.828000000    -6.404000000
O    -1.701000000     5.145000000    -1.858000000
H    -1.651000000     5.324000000    -2.797000000
H    -1.311000000     4.277000000    -1.758000000
O    -5.052000000     6.135000000    -1.390000000
H    -5.901000000     5.871000000    -1.746000000
H    -4.957000000     5.620000000    -0.589000000
O    -3.226000000     2.285000000    -6.891000000
H    -3.498000000     1.665000000    -6.214000000
H    -2.673000000     1.771000000    -7.479000000
O    -7.403000000    -0.600000000    -1.770000000
H    -7.728000000    -0.039000000    -1.066000000
H    -6.523000000    -0.270000000    -1.953000000
O    -7.868000000     1.386000000     0.278000000
H    -8.403000000     1.031000000     0.989000000
H    -6.971000000     1.150000000     0.513000000
O    -6.244000000     1.361000000    -5.184000000
H    -5.371000000     1.601000000    -5.495000000
H    -6.240000000     1.595000000    -4.256000000
O    -7.655000000    -2.107000000    -5.060000000
H    -8.037000000    -2.418000000    -4.239000000
H    -7.319000000    -1.235000000    -4.852000000
O    -8.401000000    -3.040000000    -1.865000000
H    -7.907000000    -3.631000000    -1.296000000
H    -7.884000000    -2.235000000    -1.880000000
O    -7.199000000     4.253000000    -4.726000000
H    -6.672000000     3.939000000    -3.992000000
H    -8.065000000     3.874000000    -4.579000000
O   -10.173000000     1.950000000    -1.657000000
H    -9.346000000     1.761000000    -1.213000000
H   -10.630000000     2.550000000    -1.067000000
O    -6.070000000     2.865000000    -2.350000000
H    -6.432000000     2.977000000    -1.471000000
H    -5.788000000     1.950000000    -2.377000000
O    -6.392000000     1.067000000     5.864000000
H    -7.221000000     1.487000000     5.635000000
H    -6.060000000     0.724000000     5.034000000
O    -3.418000000     1.262000000    -4.380000000
H    -3.671000000     0.948000000    -3.511000000
H    -3.000000000     2.108000000    -4.216000000
O    -7.365000000     3.890000000     0.038000000
H    -6.627000000     3.916000000     0.647000000
H    -7.719000000     3.005000000     0.129000000
O    -4.264000000     4.346000000    -3.397000000
H    -3.901000000     4.922000000    -2.723000000
H    -4.988000000     3.895000000    -2.961000000
O    -9.994000000    -1.430000000     0.268000000
H    -9.755000000    -1.158000000    -0.618000000
H    -9.824000000    -2.372000000     0.283000000
