215
-1450.74034
C    -1.160000000     1.857000000     4.303000000
H    -0.193000000     2.324000000     4.135000000
C    -1.303000000     0.434000000     4.387000000
C    -2.601000000    -0.104000000     4.567000000
H    -2.816000000    -1.159000000     4.715000000
C    -0.097000000    -0.510000000     4.191000000
O     0.989000000    -0.008000000     4.968000000
H     0.174000000    -0.559000000     3.126000000
O    -0.369000000    -1.903000000     4.585000000
C    -0.013000000    -2.881000000     3.699000000
C    -0.998000000    -3.313000000     2.771000000
H    -2.012000000    -2.932000000     2.854000000
C    -0.697000000    -4.147000000     1.717000000
O    -1.678000000    -4.487000000     0.800000000
C     0.725000000    -4.471000000     1.513000000
C     1.187000000    -5.390000000     0.385000000
H     2.164000000    -5.764000000     0.697000000
C     1.427000000    -4.738000000    -0.963000000
C     2.687000000    -4.212000000    -1.277000000
H     3.526000000    -4.355000000    -0.600000000
H     0.548000000    -6.273000000     0.314000000
C     1.686000000    -3.832000000     2.283000000
H     2.741000000    -3.823000000     2.022000000
C     1.336000000    -3.113000000     3.442000000
C     2.442000000    -2.499000000     4.336000000
H     3.312000000    -3.159000000     4.328000000
H     1.998000000    -2.442000000     5.332000000
C     2.863000000    -1.082000000     3.871000000
C     3.924000000    -0.993000000     2.972000000
H     4.550000000    -1.797000000     2.594000000
C     2.253000000     0.053000000     4.434000000
C     2.609000000     1.313000000     3.904000000
H     2.023000000     2.190000000     4.164000000
C     3.650000000     1.427000000     2.984000000
O     3.859000000     2.693000000     2.374000000
C     3.344000000     2.803000000     0.966000000
C     2.847000000     4.235000000     0.873000000
C     2.672000000     4.819000000    -0.410000000
H     3.003000000     4.236000000    -1.265000000
C     2.543000000     5.023000000     1.962000000
H     2.590000000     4.622000000     2.971000000
O     4.323000000     2.560000000    -0.041000000
H     2.380000000     2.288000000     0.845000000
C     4.326000000     0.278000000     2.574000000
C     5.446000000     0.315000000     1.527000000
H     6.162000000    -0.468000000     1.783000000
H     6.024000000     1.227000000     1.694000000
C     4.919000000     0.138000000     0.122000000
C     4.822000000    -1.090000000    -0.493000000
H     5.330000000    -1.939000000    -0.042000000
C     4.504000000     1.266000000    -0.601000000
C     3.884000000     1.139000000    -1.830000000
H     3.433000000     2.006000000    -2.305000000
C     3.638000000    -0.111000000    -2.393000000
O     2.988000000    -0.169000000    -3.661000000
C     1.731000000    -0.878000000    -3.610000000
C     0.627000000    -0.167000000    -4.354000000
C     0.477000000     1.176000000    -4.028000000
H     1.054000000     1.664000000    -3.247000000
C    -0.251000000    -0.837000000    -5.263000000
H    -0.130000000    -1.895000000    -5.480000000
O     1.928000000    -2.186000000    -4.097000000
H     1.289000000    -0.909000000    -2.603000000
C     4.222000000    -1.220000000    -1.755000000
C     4.179000000    -2.629000000    -2.386000000
H     5.010000000    -3.202000000    -1.970000000
H     4.450000000    -2.558000000    -3.441000000
C     2.879000000    -3.351000000    -2.299000000
C     1.815000000    -3.194000000    -3.225000000
C     0.529000000    -3.744000000    -2.980000000
H    -0.316000000    -3.597000000    -3.647000000
C     0.334000000    -4.402000000    -1.773000000
O    -0.957000000    -4.827000000    -1.480000000
C    -1.605000000    -3.904000000    -0.581000000
H    -0.938000000    -3.030000000    -0.602000000
C    -2.958000000    -3.415000000    -0.975000000
C    -3.715000000    -2.598000000    -0.171000000
H    -3.304000000    -2.273000000     0.782000000
C    -3.462000000    -3.813000000    -2.193000000
H    -2.843000000    -4.418000000    -2.851000000
C    -4.638000000    -3.319000000    -2.692000000
O    -5.023000000    -3.688000000    -3.972000000
C    -5.411000000    -2.596000000    -1.851000000
H    -6.450000000    -2.362000000    -2.067000000
C    -4.982000000    -2.157000000    -0.591000000
O    -5.899000000    -1.498000000     0.175000000
C    -5.857000000    -1.724000000     1.560000000
C    -5.353000000    -0.693000000     2.352000000
H    -5.113000000     0.244000000     1.858000000
C    -6.458000000    -2.796000000     2.210000000
H    -6.872000000    -3.590000000     1.594000000
C    -6.456000000    -2.927000000     3.599000000
H    -6.909000000    -3.709000000     4.204000000
C    -5.949000000    -1.833000000     4.328000000
H    -6.043000000    -1.867000000     5.411000000
C    -5.499000000    -0.705000000     3.737000000
O    -5.029000000     0.372000000     4.463000000
C    -3.743000000     0.784000000     4.529000000
C    -3.524000000     2.150000000     4.354000000
H    -4.416000000     2.755000000     4.215000000
C    -2.260000000     2.709000000     4.287000000
O    -2.195000000     4.037000000     4.074000000
C    -1.175000000     4.869000000     4.425000000
C    -0.379000000     5.511000000     3.467000000
H    -0.477000000     5.268000000     2.412000000
C    -0.817000000     4.977000000     5.787000000
H    -1.447000000     4.439000000     6.491000000
C     0.247000000     5.763000000     6.193000000
H     0.550000000     5.789000000     7.236000000
C     1.017000000     6.414000000     5.215000000
H     1.935000000     6.963000000     5.407000000
C     0.651000000     6.354000000     3.900000000
O     1.428000000     6.962000000     2.879000000
C     1.986000000     6.333000000     1.795000000
C     1.643000000     6.786000000     0.535000000
H     1.188000000     7.770000000     0.466000000
C     2.037000000     6.025000000    -0.588000000
O     1.873000000     6.497000000    -1.882000000
C     1.560000000     5.698000000    -2.987000000
C     0.460000000     4.898000000    -3.072000000
H    -0.242000000     4.829000000    -2.244000000
C     2.539000000     5.729000000    -4.039000000
H     3.467000000     6.292000000    -3.981000000
C     2.333000000     4.952000000    -5.152000000
H     3.025000000     4.965000000    -5.990000000
C     1.247000000     4.042000000    -5.182000000
H     1.112000000     3.443000000    -6.079000000
C     0.313000000     4.014000000    -4.160000000
O    -0.796000000     3.215000000    -4.249000000
C    -0.608000000     1.819000000    -4.532000000
C    -1.451000000     1.176000000    -5.480000000
H    -2.245000000     1.671000000    -6.033000000
C    -1.270000000    -0.145000000    -5.870000000
O    -2.192000000    -0.869000000    -6.639000000
C    -2.647000000    -2.100000000    -6.240000000
C    -2.359000000    -3.169000000    -7.108000000
H    -1.701000000    -2.964000000    -7.949000000
C    -2.819000000    -4.467000000    -6.894000000
H    -2.518000000    -5.321000000    -7.495000000
C    -3.790000000    -4.591000000    -5.839000000
H    -4.192000000    -5.575000000    -5.610000000
C    -4.106000000    -3.507000000    -5.004000000
C    -3.533000000    -2.234000000    -5.206000000
H    -3.772000000    -1.423000000    -4.523000000
C    -2.378000000     0.588000000     0.238000000
H    -3.181000000    -0.058000000    -0.110000000
C    -1.149000000    -0.042000000     0.541000000
H    -1.088000000    -1.118000000     0.396000000
C    -0.114000000     0.671000000     0.980000000
H     0.831000000     0.045000000     1.195000000
C    -0.209000000     2.055000000     1.164000000
H     0.564000000     2.660000000     1.632000000
C    -1.356000000     2.677000000     0.820000000
H    -1.570000000     3.665000000     1.220000000
C    -2.499000000     1.997000000     0.405000000
C    -3.881000000     2.607000000     0.246000000
O    -3.945000000     3.799000000     0.317000000
O    -4.770000000     1.967000000    -0.292000000
O    -5.081000000     0.932000000    -5.517000000
H    -4.509000000     0.840000000    -4.755000000
H    -5.105000000     1.874000000    -5.686000000
O    -2.948000000     6.392000000     0.565000000
H    -2.559000000     6.554000000    -0.294000000
H    -3.217000000     5.473000000     0.537000000
O    -1.352000000     8.555000000     1.841000000
H    -0.462000000     8.217000000     1.935000000
H    -1.797000000     7.908000000     1.293000000
O    -3.099000000     5.159000000    -4.466000000
H    -2.226000000     4.765000000    -4.443000000
H    -3.510000000     4.879000000    -3.648000000
O    -6.899000000     3.580000000    -3.231000000
H    -6.164000000     3.863000000    -2.688000000
H    -6.711000000     2.663000000    -3.431000000
O    -7.413000000     1.616000000     0.379000000
H    -7.707000000     0.710000000     0.284000000
H    -6.529000000     1.622000000     0.012000000
O    -6.577000000     4.200000000     0.640000000
H    -6.975000000     3.422000000     0.248000000
H    -5.659000000     3.962000000     0.763000000
O    -4.549000000     3.557000000    -6.060000000
H    -4.163000000     3.619000000    -6.934000000
H    -4.069000000     4.201000000    -5.540000000
O    -8.029000000     2.433000000     3.107000000
H    -7.766000000     2.438000000     2.186000000
H    -7.345000000     2.932000000     3.554000000
O    -7.490000000     0.402000000    -2.778000000
H    -7.840000000    -0.036000000    -3.554000000
H    -7.943000000    -0.012000000    -2.044000000
O    -5.979000000     4.485000000     3.915000000
H    -5.490000000     4.618000000     3.103000000
H    -6.438000000     5.313000000     4.055000000
O    -4.344000000     4.661000000    -2.243000000
H    -4.204000000     4.053000000    -1.518000000
H    -4.803000000     5.402000000    -1.849000000
O    -9.244000000     4.684000000    -2.433000000
H    -9.477000000     4.174000000    -1.658000000
H    -8.402000000     4.325000000    -2.712000000
O    -9.999000000     2.588000000    -0.536000000
H    -9.124000000     2.199000000    -0.519000000
H   -10.418000000     2.270000000     0.263000000
O    -4.830000000     0.601000000    -2.607000000
H    -4.794000000     1.047000000    -1.761000000
H    -5.727000000     0.271000000    -2.665000000
O    -6.182000000     6.420000000    -1.292000000
H    -5.793000000     6.793000000    -0.501000000
H    -6.815000000     5.778000000    -0.968000000
O    -2.669000000     7.451000000    -1.819000000
H    -3.406000000     8.061000000    -1.790000000
H    -1.903000000     7.992000000    -1.629000000
O    -8.625000000     5.743000000     1.624000000
H    -7.885000000     5.181000000     1.397000000
H    -8.383000000     6.128000000     2.467000000
O    -5.098000000     8.092000000     1.382000000
H    -5.019000000     8.243000000     2.324000000
H    -4.279000000     7.662000000     1.139000000
