215
-1433.60984
C     3.560000000    -1.011000000    -3.055000000
H     3.037000000    -1.956000000    -2.932000000
C     4.078000000    -0.212000000    -2.021000000
C     4.774000000     0.952000000    -2.311000000
H     5.091000000     1.538000000    -1.453000000
C     4.035000000    -0.814000000    -0.595000000
O     4.314000000    -2.234000000    -0.613000000
H     3.048000000    -0.633000000    -0.146000000
O     5.025000000    -0.281000000     0.379000000
C     4.454000000     0.071000000     1.611000000
C     4.037000000     1.324000000     1.702000000
H     4.188000000     2.049000000     0.906000000
C     3.242000000     1.684000000     2.816000000
O     2.746000000     2.959000000     2.849000000
C     3.024000000     0.733000000     3.867000000
C     2.168000000     0.972000000     5.024000000
H     2.445000000     0.147000000     5.683000000
C     0.664000000     0.885000000     4.843000000
C    -0.021000000    -0.300000000     5.103000000
H     0.513000000    -1.179000000     5.456000000
H     2.409000000     1.946000000     5.454000000
C     3.446000000    -0.592000000     3.694000000
H     3.146000000    -1.251000000     4.505000000
C     4.131000000    -0.940000000     2.561000000
C     4.517000000    -2.373000000     2.269000000
H     4.645000000    -2.869000000     3.233000000
H     5.535000000    -2.402000000     1.874000000
C     3.451000000    -3.096000000     1.482000000
C     2.428000000    -3.751000000     2.208000000
H     2.565000000    -3.842000000     3.282000000
C     3.445000000    -3.014000000     0.116000000
C     2.461000000    -3.667000000    -0.577000000
H     2.432000000    -3.657000000    -1.663000000
C     1.473000000    -4.402000000     0.131000000
O     0.421000000    -4.804000000    -0.711000000
C    -0.746000000    -3.995000000    -0.718000000
C    -1.391000000    -3.874000000    -2.188000000
C    -2.486000000    -3.089000000    -2.413000000
H    -3.167000000    -2.767000000    -1.629000000
C    -0.672000000    -4.351000000    -3.345000000
H     0.229000000    -4.935000000    -3.174000000
O    -1.704000000    -4.590000000     0.144000000
H    -0.611000000    -2.957000000    -0.380000000
C     1.465000000    -4.391000000     1.484000000
C     0.332000000    -4.971000000     2.275000000
H     0.692000000    -5.168000000     3.287000000
H    -0.064000000    -5.901000000     1.863000000
C    -0.943000000    -4.147000000     2.314000000
C    -1.037000000    -3.395000000     3.479000000
H    -0.278000000    -3.515000000     4.248000000
C    -1.893000000    -4.008000000     1.316000000
C    -3.009000000    -3.174000000     1.513000000
H    -3.692000000    -3.007000000     0.684000000
C    -3.062000000    -2.370000000     2.717000000
O    -4.024000000    -1.372000000     2.860000000
C    -3.588000000    -0.014000000     2.590000000
C    -4.648000000     0.740000000     1.763000000
C    -5.511000000     0.002000000     0.948000000
H    -5.716000000    -1.044000000     1.161000000
C    -4.423000000     2.106000000     1.487000000
H    -3.544000000     2.620000000     1.866000000
O    -3.348000000     0.575000000     3.878000000
H    -2.666000000     0.094000000     2.001000000
C    -2.115000000    -2.502000000     3.684000000
C    -2.079000000    -1.707000000     4.978000000
H    -1.420000000    -2.282000000     5.631000000
H    -3.045000000    -1.676000000     5.487000000
C    -1.374000000    -0.431000000     4.801000000
C    -2.077000000     0.661000000     4.325000000
C    -1.422000000     1.828000000     4.045000000
H    -2.016000000     2.638000000     3.629000000
C    -0.058000000     1.919000000     4.240000000
O     0.532000000     3.037000000     3.669000000
C     1.375000000     2.996000000     2.546000000
H     1.108000000     2.105000000     1.959000000
C     1.147000000     4.129000000     1.640000000
C     1.923000000     4.166000000     0.493000000
H     2.803000000     3.553000000     0.318000000
C     0.095000000     5.016000000     1.870000000
H    -0.594000000     4.894000000     2.702000000
C    -0.217000000     5.988000000     0.907000000
O    -1.306000000     6.913000000     1.110000000
C     0.685000000     6.181000000    -0.116000000
H     0.619000000     7.032000000    -0.790000000
C     1.654000000     5.203000000    -0.410000000
O     2.257000000     5.246000000    -1.630000000
C     3.598000000     5.059000000    -1.930000000
C     3.899000000     4.008000000    -2.857000000
H     3.130000000     3.601000000    -3.508000000
C     4.552000000     5.536000000    -1.074000000
H     4.323000000     6.255000000    -0.291000000
C     5.909000000     5.097000000    -1.250000000
H     6.688000000     5.473000000    -0.591000000
C     6.245000000     4.179000000    -2.227000000
H     7.267000000     3.870000000    -2.435000000
C     5.266000000     3.622000000    -3.029000000
O     5.565000000     2.626000000    -3.904000000
C     4.980000000     1.377000000    -3.629000000
C     4.497000000     0.586000000    -4.629000000
H     4.484000000     0.827000000    -5.689000000
C     3.807000000    -0.605000000    -4.389000000
O     3.437000000    -1.374000000    -5.471000000
C     2.949000000    -2.684000000    -5.433000000
C     1.609000000    -2.881000000    -5.560000000
H     0.860000000    -2.098000000    -5.468000000
C     3.839000000    -3.761000000    -5.443000000
H     4.921000000    -3.707000000    -5.528000000
C     3.435000000    -5.081000000    -5.555000000
H     4.108000000    -5.931000000    -5.629000000
C     2.021000000    -5.257000000    -5.512000000
H     1.641000000    -6.275000000    -5.542000000
C     1.156000000    -4.199000000    -5.686000000
O    -0.226000000    -4.313000000    -5.725000000
C    -1.032000000    -3.920000000    -4.669000000
C    -2.160000000    -3.104000000    -4.811000000
H    -2.525000000    -2.754000000    -5.773000000
C    -2.811000000    -2.657000000    -3.666000000
O    -3.896000000    -1.819000000    -3.896000000
C    -5.107000000    -1.818000000    -3.293000000
C    -5.448000000    -0.908000000    -2.301000000
H    -4.796000000    -0.089000000    -2.006000000
C    -6.001000000    -2.767000000    -3.766000000
H    -5.607000000    -3.403000000    -4.555000000
C    -7.273000000    -2.848000000    -3.204000000
H    -8.001000000    -3.533000000    -3.632000000
C    -7.603000000    -1.979000000    -2.196000000
H    -8.595000000    -1.955000000    -1.751000000
C    -6.733000000    -1.009000000    -1.719000000
O    -7.154000000    -0.019000000    -0.867000000
C    -6.298000000     0.675000000    -0.001000000
C    -6.047000000     2.048000000    -0.231000000
H    -6.588000000     2.453000000    -1.083000000
C    -5.231000000     2.793000000     0.562000000
O    -5.013000000     4.071000000     0.177000000
C    -4.331000000     4.930000000     0.982000000
C    -4.836000000     5.101000000     2.257000000
H    -5.763000000     4.594000000     2.513000000
C    -4.233000000     5.998000000     3.157000000
H    -4.573000000     6.236000000     4.162000000
C    -3.020000000     6.662000000     2.728000000
H    -2.421000000     7.316000000     3.358000000
C    -2.621000000     6.514000000     1.386000000
C    -3.260000000     5.652000000     0.522000000
H    -2.834000000     5.533000000    -0.471000000
C    -0.141000000     0.519000000    -2.288000000
H     0.196000000     0.034000000    -3.201000000
C     0.148000000    -0.099000000    -1.070000000
H     0.623000000    -1.074000000    -1.147000000
C    -0.101000000     0.500000000     0.167000000
H     0.161000000    -0.010000000     1.098000000
C    -0.882000000     1.667000000     0.181000000
H    -1.174000000     2.134000000     1.118000000
C    -1.351000000     2.190000000    -1.063000000
H    -2.115000000     2.946000000    -0.900000000
C    -0.926000000     1.676000000    -2.321000000
C    -1.717000000     2.078000000    -3.485000000
O    -2.736000000     2.778000000    -3.293000000
O    -1.488000000     1.643000000    -4.588000000
O    -4.640000000     6.130000000    -5.953000000
H    -4.740000000     6.274000000    -6.894000000
H    -4.661000000     5.178000000    -5.853000000
O    -6.509000000     0.856000000    -8.299000000
H    -6.367000000     0.490000000    -7.426000000
H    -5.990000000     0.299000000    -8.879000000
O    -2.943000000    -0.212000000    -5.907000000
H    -3.406000000    -0.597000000    -5.163000000
H    -2.537000000     0.580000000    -5.553000000
O    -0.490000000     7.963000000    -3.822000000
H    -0.921000000     7.109000000    -3.842000000
H     0.205000000     7.866000000    -3.171000000
O    -7.820000000     3.057000000    -3.653000000
H    -8.123000000     2.249000000    -3.238000000
H    -6.896000000     3.118000000    -3.411000000
O    -3.515000000     7.649000000    -1.812000000
H    -2.795000000     7.206000000    -2.260000000
H    -4.126000000     7.880000000    -2.511000000
O    -0.817000000     4.942000000    -7.156000000
H    -1.029000000     5.516000000    -7.892000000
H    -0.410000000     5.521000000    -6.511000000
O     2.534000000     0.545000000    -7.704000000
H     2.769000000    -0.365000000    -7.884000000
H     1.617000000     0.506000000    -7.431000000
O     0.039000000     0.180000000    -6.811000000
H    -0.207000000     0.219000000    -5.887000000
H    -0.794000000     0.197000000    -7.282000000
O    -4.378000000     3.378000000    -5.700000000
H    -3.796000000     2.918000000    -6.305000000
H    -4.029000000     3.175000000    -4.832000000
O    -2.038000000     5.702000000    -3.907000000
H    -2.308000000     4.837000000    -3.598000000
H    -2.692000000     5.936000000    -4.565000000
O    -1.514000000     0.530000000    -9.496000000
H    -1.607000000     1.471000000    -9.345000000
H    -2.332000000     0.275000000    -9.922000000
O     0.368000000     3.000000000    -5.836000000
H    -0.151000000     3.609000000    -6.362000000
H    -0.279000000     2.430000000    -5.422000000
O    -2.392000000     2.957000000    -8.605000000
H    -3.298000000     3.266000000    -8.621000000
H    -1.982000000     3.454000000    -7.897000000
O    -5.243000000     7.733000000    -3.986000000
H    -6.032000000     7.339000000    -3.612000000
H    -4.989000000     7.137000000    -4.690000000
O     2.732000000     3.437000000    -6.840000000
H     2.854000000     2.553000000    -7.186000000
H     1.910000000     3.392000000    -6.352000000
O    -2.804000000    -2.152000000    -8.130000000
H    -2.767000000    -1.296000000    -7.703000000
H    -3.590000000    -2.565000000    -7.773000000
O    -5.231000000     3.477000000    -2.784000000
H    -4.333000000     3.201000000    -2.969000000
H    -5.153000000     4.052000000    -2.023000000
O    -5.132000000     3.475000000    -8.829000000
H    -5.406000000     2.601000000    -8.551000000
H    -5.912000000     4.019000000    -8.714000000
