215
-1479.98803
C    -1.325000000     2.399000000     4.596000000
H    -0.263000000     2.615000000     4.509000000
C    -1.715000000     1.059000000     4.657000000
C    -3.056000000     0.746000000     4.660000000
H    -3.306000000    -0.311000000     4.683000000
C    -0.628000000    -0.033000000     4.372000000
O     0.665000000     0.180000000     5.036000000
H    -0.477000000     0.079000000     3.288000000
O    -1.126000000    -1.350000000     4.617000000
C    -0.854000000    -2.394000000     3.762000000
C    -1.812000000    -2.815000000     2.822000000
H    -2.740000000    -2.255000000     2.745000000
C    -1.576000000    -3.812000000     1.903000000
O    -2.524000000    -4.141000000     0.967000000
C    -0.369000000    -4.496000000     1.924000000
C    -0.090000000    -5.504000000     0.847000000
H     0.694000000    -6.227000000     1.083000000
C     0.307000000    -4.851000000    -0.494000000
C     1.661000000    -4.593000000    -0.691000000
H     2.389000000    -4.957000000     0.029000000
H    -1.002000000    -6.092000000     0.728000000
C     0.601000000    -4.149000000     2.933000000
H     1.529000000    -4.715000000     2.924000000
C     0.403000000    -3.015000000     3.727000000
C     1.528000000    -2.622000000     4.632000000
H     2.171000000    -3.502000000     4.709000000
H     1.265000000    -2.351000000     5.657000000
C     2.245000000    -1.406000000     4.019000000
C     3.349000000    -1.644000000     3.217000000
H     3.588000000    -2.674000000     2.965000000
C     1.801000000    -0.038000000     4.310000000
C     2.579000000     1.012000000     3.899000000
H     2.219000000     2.001000000     4.168000000
C     3.642000000     0.776000000     3.005000000
O     4.172000000     1.911000000     2.402000000
C     3.801000000     2.044000000     1.008000000
C     3.513000000     3.535000000     0.701000000
C     3.769000000     4.011000000    -0.575000000
H     4.078000000     3.298000000    -1.334000000
C     2.902000000     4.330000000     1.693000000
H     2.785000000     4.050000000     2.737000000
O     4.745000000     1.516000000     0.061000000
H     2.745000000     1.748000000     0.931000000
C     4.019000000    -0.526000000     2.705000000
C     5.147000000    -0.873000000     1.730000000
H     5.592000000    -1.807000000     2.081000000
H     5.912000000    -0.099000000     1.647000000
C     4.700000000    -0.902000000     0.288000000
C     4.616000000    -2.221000000    -0.284000000
H     4.669000000    -3.106000000     0.345000000
C     4.468000000     0.232000000    -0.453000000
C     4.157000000     0.099000000    -1.816000000
H     3.994000000     1.005000000    -2.394000000
C     3.918000000    -1.139000000    -2.366000000
O     3.199000000    -1.134000000    -3.579000000
C     1.755000000    -1.375000000    -3.582000000
C     1.139000000    -0.548000000    -4.649000000
C     1.658000000     0.770000000    -4.789000000
H     2.448000000     1.126000000    -4.133000000
C     0.043000000    -0.988000000    -5.408000000
H    -0.443000000    -1.948000000    -5.252000000
O     1.503000000    -2.775000000    -3.840000000
H     1.277000000    -1.050000000    -2.646000000
C     4.103000000    -2.327000000    -1.577000000
C     3.613000000    -3.664000000    -2.118000000
H     4.111000000    -4.514000000    -1.646000000
H     3.720000000    -3.706000000    -3.203000000
C     2.144000000    -3.907000000    -1.839000000
C     1.142000000    -3.518000000    -2.769000000
C    -0.207000000    -3.746000000    -2.636000000
H    -0.924000000    -3.410000000    -3.382000000
C    -0.671000000    -4.446000000    -1.523000000
O    -2.003000000    -4.469000000    -1.279000000
C    -2.495000000    -3.457000000    -0.334000000
H    -1.753000000    -2.645000000    -0.374000000
C    -3.810000000    -2.816000000    -0.834000000
C    -4.643000000    -2.167000000     0.031000000
H    -4.391000000    -2.149000000     1.088000000
C    -4.061000000    -2.772000000    -2.209000000
H    -3.306000000    -3.145000000    -2.896000000
C    -5.086000000    -1.992000000    -2.704000000
O    -5.219000000    -1.582000000    -4.042000000
C    -5.978000000    -1.384000000    -1.812000000
H    -6.732000000    -0.715000000    -2.221000000
C    -5.777000000    -1.507000000    -0.412000000
O    -6.660000000    -0.806000000     0.431000000
C    -6.539000000    -0.740000000     1.736000000
C    -5.958000000     0.298000000     2.436000000
H    -5.712000000     1.216000000     1.907000000
C    -7.107000000    -1.813000000     2.496000000
H    -7.550000000    -2.641000000     1.948000000
C    -7.132000000    -1.770000000     3.876000000
H    -7.593000000    -2.605000000     4.397000000
C    -6.557000000    -0.681000000     4.597000000
H    -6.423000000    -0.568000000     5.670000000
C    -5.858000000     0.315000000     3.834000000
O    -5.354000000     1.479000000     4.483000000
C    -4.022000000     1.728000000     4.630000000
C    -3.587000000     3.116000000     4.718000000
H    -4.367000000     3.861000000     4.852000000
C    -2.262000000     3.431000000     4.710000000
O    -1.927000000     4.842000000     4.648000000
C    -0.643000000     5.233000000     4.619000000
C    -0.102000000     5.594000000     3.410000000
H    -0.680000000     5.404000000     2.509000000
C     0.126000000     5.350000000     5.779000000
H    -0.291000000     5.177000000     6.768000000
C     1.439000000     5.730000000     5.667000000
H     2.053000000     5.754000000     6.564000000
C     2.044000000     6.035000000     4.435000000
H     3.065000000     6.408000000     4.445000000
C     1.189000000     6.060000000     3.330000000
O     1.665000000     6.402000000     2.086000000
C     2.532000000     5.655000000     1.307000000
C     2.796000000     6.097000000     0.014000000
H     2.546000000     7.102000000    -0.318000000
C     3.303000000     5.258000000    -0.943000000
O     3.323000000     5.649000000    -2.253000000
C     3.492000000     4.744000000    -3.316000000
C     2.422000000     4.252000000    -4.060000000
H     1.402000000     4.462000000    -3.749000000
C     4.764000000     4.435000000    -3.723000000
H     5.592000000     4.714000000    -3.077000000
C     4.991000000     3.732000000    -4.906000000
H     6.014000000     3.439000000    -5.131000000
C     3.899000000     3.251000000    -5.659000000
H     4.069000000     2.712000000    -6.588000000
C     2.593000000     3.468000000    -5.233000000
O     1.524000000     2.939000000    -5.892000000
C     1.008000000     1.655000000    -5.633000000
C    -0.032000000     1.171000000    -6.457000000
H    -0.352000000     1.733000000    -7.331000000
C    -0.515000000    -0.151000000    -6.334000000
O    -1.627000000    -0.501000000    -7.054000000
C    -2.650000000    -1.302000000    -6.606000000
C    -2.823000000    -2.486000000    -7.314000000
H    -2.309000000    -2.687000000    -8.250000000
C    -3.854000000    -3.326000000    -6.869000000
H    -4.081000000    -4.207000000    -7.464000000
C    -4.637000000    -3.035000000    -5.799000000
H    -5.446000000    -3.724000000    -5.570000000
C    -4.379000000    -1.896000000    -5.044000000
C    -3.404000000    -0.967000000    -5.502000000
H    -3.188000000    -0.045000000    -4.970000000
C    -2.705000000     0.618000000    -2.036000000
H    -3.015000000     0.970000000    -3.016000000
C    -1.617000000    -0.246000000    -1.871000000
H    -1.170000000    -0.599000000    -2.797000000
C    -1.013000000    -0.410000000    -0.623000000
H    -0.115000000    -0.948000000    -0.508000000
C    -1.619000000     0.158000000     0.487000000
H    -1.185000000    -0.009000000     1.469000000
C    -2.746000000     1.057000000     0.330000000
H    -3.274000000     1.426000000     1.205000000
C    -3.280000000     1.275000000    -0.952000000
C    -4.433000000     2.226000000    -1.075000000
O    -4.600000000     3.144000000    -0.275000000
O    -5.330000000     2.036000000    -1.864000000
O    -3.111000000     4.967000000    -1.958000000
H    -2.824000000     5.674000000    -1.380000000
H    -3.720000000     4.455000000    -1.426000000
O    -2.751000000     4.525000000     1.090000000
H    -3.302000000     5.090000000     1.631000000
H    -3.341000000     4.192000000     0.413000000
O    -8.945000000     1.813000000     1.862000000
H    -8.201000000     1.744000000     1.264000000
H    -9.218000000     2.728000000     1.799000000
O    -5.628000000     1.127000000    -4.381000000
H    -5.469000000     0.183000000    -4.387000000
H    -5.562000000     1.375000000    -3.459000000
O    -6.522000000     4.668000000    -1.570000000
H    -5.839000000     4.120000000    -1.182000000
H    -6.939000000     4.105000000    -2.222000000
O    -8.376000000     2.021000000    -4.847000000
H    -7.438000000     1.968000000    -5.031000000
H    -8.523000000     2.938000000    -4.615000000
O    -9.497000000     2.808000000    -1.642000000
H    -8.905000000     2.483000000    -0.964000000
H    -9.544000000     2.097000000    -2.280000000
O    -3.440000000     2.483000000    -5.590000000
H    -4.189000000     3.078000000    -5.545000000
H    -2.833000000     2.811000000    -4.926000000
O    -6.646000000     4.517000000     1.408000000
H    -7.178000000     5.169000000     0.951000000
H    -6.174000000     4.063000000     0.711000000
O    -4.769000000     6.021000000     2.083000000
H    -5.303000000     6.781000000     1.855000000
H    -5.336000000     5.269000000     1.911000000
O    -6.086000000     1.919000000    -7.261000000
H    -5.237000000     1.681000000    -7.634000000
H    -5.926000000     1.975000000    -6.319000000
O    -0.149000000     2.394000000    -1.501000000
H    -0.084000000     2.822000000    -0.648000000
H    -0.412000000     1.496000000    -1.299000000
O    -7.029000000     4.592000000     4.156000000
H    -7.796000000     5.160000000     4.091000000
H    -6.770000000     4.435000000     3.248000000
O    -8.610000000     5.837000000    -0.253000000
H    -8.002000000     5.313000000    -0.774000000
H    -8.464000000     6.736000000    -0.547000000
O    -7.457000000     1.624000000    -0.630000000
H    -6.660000000     1.700000000    -1.154000000
H    -7.582000000     0.681000000    -0.520000000
O    -5.334000000     4.334000000    -4.996000000
H    -5.386000000     5.157000000    -4.509000000
H    -5.257000000     3.661000000    -4.320000000
O    -7.185000000     7.191000000    -2.887000000
H    -7.095000000     6.495000000    -2.236000000
H    -6.497000000     7.817000000    -2.665000000
O     0.036000000     2.845000000     1.562000000
H     0.135000000     2.767000000     2.511000000
H    -0.812000000     3.273000000     1.443000000
O    -1.460000000     3.627000000    -3.556000000
H    -2.210000000     4.067000000    -3.158000000
H    -0.970000000     3.270000000    -2.816000000
