215
-1430.61418
C     4.463000000    -1.236000000    -2.968000000
H     4.023000000    -2.227000000    -2.888000000
C     4.660000000    -0.451000000    -1.829000000
C     5.015000000     0.881000000    -1.921000000
H     5.119000000     1.447000000    -0.999000000
C     4.356000000    -1.063000000    -0.362000000
O     4.817000000    -2.385000000    -0.284000000
H     3.298000000    -0.974000000    -0.076000000
O     5.015000000    -0.293000000     0.648000000
C     4.346000000    -0.072000000     1.875000000
C     3.874000000     1.231000000     2.099000000
H     4.106000000     1.969000000     1.336000000
C     3.049000000     1.468000000     3.165000000
O     2.509000000     2.760000000     3.284000000
C     2.614000000     0.439000000     4.005000000
C     1.686000000     0.775000000     5.150000000
H     1.966000000     0.012000000     5.879000000
C     0.186000000     0.716000000     4.772000000
C    -0.499000000    -0.444000000     4.907000000
H     0.035000000    -1.346000000     5.195000000
H     1.972000000     1.708000000     5.639000000
C     3.158000000    -0.852000000     3.801000000
H     2.847000000    -1.576000000     4.549000000
C     4.046000000    -1.121000000     2.747000000
C     4.535000000    -2.560000000     2.505000000
H     4.625000000    -3.082000000     3.460000000
H     5.566000000    -2.477000000     2.155000000
C     3.572000000    -3.322000000     1.572000000
C     2.426000000    -4.015000000     2.149000000
H     2.329000000    -4.234000000     3.209000000
C     3.800000000    -3.259000000     0.201000000
C     2.840000000    -3.867000000    -0.633000000
H     2.940000000    -3.771000000    -1.711000000
C     1.646000000    -4.392000000    -0.125000000
O     0.566000000    -4.683000000    -0.981000000
C    -0.619000000    -3.791000000    -1.032000000
C    -1.053000000    -3.366000000    -2.410000000
C    -2.343000000    -2.810000000    -2.566000000
H    -2.861000000    -2.430000000    -1.689000000
C    -0.198000000    -3.569000000    -3.467000000
H     0.803000000    -3.956000000    -3.292000000
O    -1.693000000    -4.441000000    -0.331000000
H    -0.452000000    -2.867000000    -0.458000000
C     1.413000000    -4.434000000     1.225000000
C     0.155000000    -5.094000000     1.781000000
H     0.334000000    -5.547000000     2.759000000
H    -0.035000000    -5.883000000     1.051000000
C    -1.058000000    -4.168000000     1.974000000
C    -1.259000000    -3.521000000     3.188000000
H    -0.634000000    -3.774000000     4.040000000
C    -1.930000000    -3.930000000     0.886000000
C    -3.006000000    -3.122000000     1.132000000
H    -3.775000000    -2.847000000     0.415000000
C    -3.241000000    -2.438000000     2.344000000
O    -4.216000000    -1.558000000     2.342000000
C    -3.828000000    -0.262000000     2.168000000
C    -4.796000000     0.598000000     1.331000000
C    -5.830000000    -0.019000000     0.617000000
H    -6.044000000    -1.085000000     0.605000000
C    -4.662000000     1.961000000     1.318000000
H    -3.893000000     2.412000000     1.940000000
O    -3.694000000     0.440000000     3.470000000
H    -2.832000000    -0.225000000     1.704000000
C    -2.347000000    -2.662000000     3.356000000
C    -2.521000000    -1.879000000     4.660000000
H    -1.974000000    -2.451000000     5.413000000
H    -3.564000000    -1.752000000     4.955000000
C    -1.860000000    -0.549000000     4.575000000
C    -2.453000000     0.575000000     4.065000000
C    -1.773000000     1.797000000     3.897000000
H    -2.366000000     2.654000000     3.587000000
C    -0.450000000     1.881000000     4.334000000
O     0.248000000     3.002000000     3.988000000
C     1.145000000     2.944000000     2.844000000
H     0.851000000     2.052000000     2.272000000
C     0.835000000     4.111000000     1.849000000
C     1.717000000     4.260000000     0.728000000
H     2.566000000     3.581000000     0.705000000
C    -0.281000000     4.972000000     1.924000000
H    -0.983000000     4.890000000     2.750000000
C    -0.435000000     5.939000000     0.972000000
O    -1.484000000     6.825000000     1.114000000
C     0.441000000     6.048000000    -0.093000000
H     0.322000000     6.713000000    -0.945000000
C     1.545000000     5.202000000    -0.243000000
O     2.445000000     5.465000000    -1.211000000
C     3.744000000     4.955000000    -1.186000000
C     4.136000000     4.103000000    -2.223000000
H     3.404000000     3.750000000    -2.945000000
C     4.707000000     5.348000000    -0.227000000
H     4.320000000     5.974000000     0.573000000
C     6.023000000     4.826000000    -0.259000000
H     6.773000000     5.104000000     0.476000000
C     6.444000000     4.147000000    -1.360000000
H     7.454000000     3.743000000    -1.356000000
C     5.451000000     3.695000000    -2.320000000
O     5.705000000     2.760000000    -3.283000000
C     5.350000000     1.437000000    -3.141000000
C     5.167000000     0.631000000    -4.310000000
H     5.540000000     0.911000000    -5.292000000
C     4.746000000    -0.703000000    -4.244000000
O     4.528000000    -1.378000000    -5.410000000
C     3.700000000    -2.489000000    -5.563000000
C     2.371000000    -2.393000000    -5.413000000
H     1.966000000    -1.386000000    -5.356000000
C     4.292000000    -3.662000000    -5.984000000
H     5.377000000    -3.732000000    -5.971000000
C     3.507000000    -4.802000000    -6.098000000
H     4.000000000    -5.762000000    -6.230000000
C     2.106000000    -4.679000000    -5.967000000
H     1.469000000    -5.514000000    -6.247000000
C     1.607000000    -3.486000000    -5.743000000
O     0.249000000    -3.260000000    -5.855000000
C    -0.605000000    -3.145000000    -4.755000000
C    -1.913000000    -2.670000000    -4.942000000
H    -2.091000000    -2.261000000    -5.933000000
C    -2.737000000    -2.511000000    -3.852000000
O    -3.769000000    -1.639000000    -3.985000000
C    -5.073000000    -1.725000000    -3.570000000
C    -5.647000000    -0.759000000    -2.779000000
H    -5.053000000     0.142000000    -2.656000000
C    -5.834000000    -2.759000000    -3.971000000
H    -5.512000000    -3.633000000    -4.532000000
C    -7.172000000    -2.830000000    -3.508000000
H    -7.858000000    -3.636000000    -3.754000000
C    -7.717000000    -1.930000000    -2.613000000
H    -8.715000000    -2.013000000    -2.192000000
C    -6.929000000    -0.811000000    -2.277000000
O    -7.403000000     0.049000000    -1.270000000
C    -6.616000000     0.699000000    -0.275000000
C    -6.458000000     2.100000000    -0.272000000
H    -6.828000000     2.730000000    -1.077000000
C    -5.555000000     2.666000000     0.557000000
O    -5.389000000     3.988000000     0.370000000
C    -4.606000000     4.888000000     1.174000000
C    -4.930000000     5.129000000     2.522000000
H    -5.725000000     4.629000000     3.069000000
C    -4.200000000     5.988000000     3.354000000
H    -4.424000000     6.181000000     4.400000000
C    -3.131000000     6.623000000     2.735000000
H    -2.519000000     7.275000000     3.352000000
C    -2.757000000     6.455000000     1.407000000
C    -3.528000000     5.651000000     0.592000000
H    -3.261000000     5.342000000    -0.415000000
C     0.453000000     0.215000000    -1.861000000
H     0.691000000     0.093000000    -2.915000000
C     0.725000000    -0.772000000    -0.938000000
H     1.381000000    -1.619000000    -1.118000000
C     0.357000000    -0.587000000     0.382000000
H     0.359000000    -1.337000000     1.153000000
C    -0.336000000     0.595000000     0.735000000
H    -0.693000000     0.748000000     1.750000000
C    -0.560000000     1.575000000    -0.173000000
H    -1.107000000     2.447000000     0.176000000
C    -0.274000000     1.364000000    -1.500000000
C    -0.608000000     2.410000000    -2.467000000
O    -1.340000000     3.334000000    -2.134000000
O    -0.044000000     2.455000000    -3.529000000
O     2.093000000     8.255000000    -2.154000000
H     2.836000000     8.813000000    -2.380000000
H     2.419000000     7.697000000    -1.447000000
O    -1.481000000     8.961000000    -1.799000000
H    -1.883000000     8.271000000    -2.327000000
H    -0.847000000     9.373000000    -2.385000000
O    -4.528000000     0.194000000    -6.041000000
H    -3.927000000    -0.513000000    -6.276000000
H    -4.123000000     0.610000000    -5.280000000
O     3.439000000     7.241000000    -6.098000000
H     3.327000000     8.166000000    -5.880000000
H     2.845000000     6.782000000    -5.504000000
O    -1.353000000     8.208000000    -5.548000000
H    -0.661000000     7.767000000    -6.040000000
H    -1.833000000     7.499000000    -5.121000000
O    -6.120000000     4.600000000    -2.980000000
H    -6.575000000     4.038000000    -3.607000000
H    -5.296000000     4.146000000    -2.805000000
O    -3.511000000     7.261000000    -2.788000000
H    -2.907000000     6.561000000    -3.036000000
H    -4.082000000     7.365000000    -3.549000000
O    -1.922000000     4.400000000    -6.086000000
H    -1.203000000     4.004000000    -6.578000000
H    -2.632000000     4.483000000    -6.723000000
O     0.894000000    -0.052000000    -7.056000000
H     0.548000000    -0.796000000    -7.550000000
H     0.166000000     0.225000000    -6.500000000
O    -0.954000000     1.018000000    -5.706000000
H    -0.499000000     1.170000000    -4.878000000
H    -1.870000000     1.222000000    -5.517000000
O    -3.464000000     1.918000000    -4.416000000
H    -3.993000000     2.615000000    -4.805000000
H    -3.490000000     2.094000000    -3.475000000
O    -1.273000000     5.381000000    -3.611000000
H    -1.330000000     4.761000000    -2.884000000
H    -1.401000000     4.845000000    -4.394000000
O     1.432000000     3.910000000    -5.141000000
H     1.746000000     4.699000000    -4.699000000
H     0.909000000     3.457000000    -4.480000000
O     1.504000000     6.418000000    -4.205000000
H     1.589000000     7.050000000    -3.491000000
H     0.624000000     6.055000000    -4.100000000
O     0.351000000     3.551000000    -7.878000000
H     1.224000000     3.813000000    -8.170000000
H     0.444000000     3.414000000    -6.936000000
O    -2.056000000     2.191000000    -9.007000000
H    -1.380000000     2.855000000    -8.874000000
H    -1.818000000     1.484000000    -8.408000000
O     2.876000000     1.899000000    -6.182000000
H     2.353000000     1.137000000    -6.432000000
H     2.260000000     2.474000000    -5.728000000
O    -3.924000000     3.063000000    -2.012000000
H    -2.974000000     3.100000000    -2.121000000
H    -4.071000000     3.318000000    -1.101000000
O    -5.746000000     2.383000000    -6.864000000
H    -6.217000000     2.332000000    -7.696000000
H    -5.409000000     1.498000000    -6.725000000
