215
-1438.48395
C    -0.906000000     2.324000000     4.462000000
H     0.178000000     2.405000000     4.483000000
C    -1.434000000     1.047000000     4.308000000
C    -2.844000000     0.917000000     4.358000000
H    -3.279000000    -0.053000000     4.133000000
C    -0.597000000    -0.189000000     4.021000000
O     0.610000000    -0.214000000     4.852000000
H    -0.240000000    -0.163000000     2.981000000
O    -1.395000000    -1.445000000     4.185000000
C    -1.260000000    -2.555000000     3.357000000
C    -2.360000000    -2.896000000     2.640000000
H    -3.266000000    -2.296000000     2.680000000
C    -2.161000000    -3.718000000     1.529000000
O    -3.170000000    -3.818000000     0.610000000
C    -0.980000000    -4.471000000     1.355000000
C    -0.836000000    -5.561000000     0.312000000
H    -0.138000000    -6.302000000     0.709000000
C    -0.407000000    -4.944000000    -1.030000000
C     1.021000000    -4.811000000    -1.179000000
H     1.720000000    -5.208000000    -0.448000000
H    -1.764000000    -6.128000000     0.217000000
C     0.084000000    -4.303000000     2.241000000
H     0.973000000    -4.925000000     2.164000000
C    -0.086000000    -3.291000000     3.200000000
C     0.932000000    -3.057000000     4.337000000
H     1.569000000    -3.917000000     4.555000000
H     0.468000000    -2.868000000     5.307000000
C     2.008000000    -2.015000000     3.994000000
C     3.140000000    -2.406000000     3.253000000
H     3.290000000    -3.421000000     2.894000000
C     1.754000000    -0.678000000     4.357000000
C     2.720000000     0.260000000     3.965000000
H     2.532000000     1.317000000     4.132000000
C     3.768000000    -0.074000000     3.143000000
O     4.419000000     0.963000000     2.576000000
C     3.950000000     1.285000000     1.252000000
C     3.685000000     2.794000000     1.099000000
C     3.701000000     3.274000000    -0.231000000
H     3.808000000     2.601000000    -1.078000000
C     3.412000000     3.708000000     2.095000000
H     3.333000000     3.403000000     3.136000000
O     4.858000000     0.774000000     0.204000000
H     2.960000000     0.809000000     1.190000000
C     4.083000000    -1.434000000     2.801000000
C     5.094000000    -1.685000000     1.682000000
H     5.621000000    -2.620000000     1.883000000
H     5.873000000    -0.940000000     1.858000000
C     4.610000000    -1.659000000     0.255000000
C     4.044000000    -2.718000000    -0.370000000
H     4.127000000    -3.615000000     0.239000000
C     4.490000000    -0.428000000    -0.342000000
C     3.960000000    -0.309000000    -1.571000000
H     3.874000000     0.655000000    -2.066000000
C     3.607000000    -1.418000000    -2.307000000
O     3.032000000    -1.224000000    -3.584000000
C     1.554000000    -1.278000000    -3.791000000
C     1.149000000    -0.210000000    -4.904000000
C     1.988000000     0.878000000    -5.221000000
H     2.932000000     0.943000000    -4.686000000
C    -0.179000000    -0.170000000    -5.315000000
H    -0.747000000    -1.078000000    -5.127000000
O     1.117000000    -2.650000000    -4.126000000
H     1.076000000    -0.969000000    -2.849000000
C     3.596000000    -2.683000000    -1.690000000
C     3.071000000    -3.929000000    -2.356000000
H     3.525000000    -4.853000000    -1.991000000
H     3.466000000    -3.939000000    -3.374000000
C     1.565000000    -4.099000000    -2.272000000
C     0.664000000    -3.523000000    -3.161000000
C    -0.696000000    -3.568000000    -2.978000000
H    -1.210000000    -2.852000000    -3.615000000
C    -1.263000000    -4.376000000    -1.960000000
O    -2.607000000    -4.206000000    -1.757000000
C    -2.854000000    -3.242000000    -0.711000000
H    -1.981000000    -2.581000000    -0.607000000
C    -4.046000000    -2.323000000    -1.147000000
C    -4.743000000    -1.645000000    -0.155000000
H    -4.502000000    -1.875000000     0.880000000
C    -4.310000000    -2.135000000    -2.501000000
H    -3.807000000    -2.736000000    -3.254000000
C    -5.323000000    -1.316000000    -2.923000000
O    -5.694000000    -1.258000000    -4.193000000
C    -5.973000000    -0.533000000    -1.985000000
H    -6.734000000     0.188000000    -2.272000000
C    -5.766000000    -0.756000000    -0.582000000
O    -6.280000000     0.144000000     0.253000000
C    -6.349000000     0.023000000     1.614000000
C    -5.774000000     1.086000000     2.381000000
H    -5.235000000     1.881000000     1.873000000
C    -6.979000000    -1.055000000     2.255000000
H    -7.367000000    -1.937000000     1.752000000
C    -7.042000000    -1.091000000     3.624000000
H    -7.566000000    -1.885000000     4.151000000
C    -6.379000000    -0.133000000     4.395000000
H    -6.473000000    -0.026000000     5.472000000
C    -5.766000000     1.011000000     3.773000000
O    -5.095000000     1.956000000     4.525000000
C    -3.697000000     2.009000000     4.549000000
C    -3.124000000     3.282000000     4.701000000
H    -3.746000000     4.161000000     4.852000000
C    -1.765000000     3.485000000     4.519000000
O    -1.369000000     4.788000000     4.652000000
C    -0.023000000     5.071000000     4.925000000
C     0.758000000     5.327000000     3.821000000
H     0.389000000     5.400000000     2.801000000
C     0.456000000     5.094000000     6.190000000
H    -0.182000000     5.025000000     7.067000000
C     1.826000000     5.293000000     6.394000000
H     2.240000000     5.318000000     7.398000000
C     2.627000000     5.569000000     5.252000000
H     3.689000000     5.779000000     5.347000000
C     2.084000000     5.633000000     4.010000000
O     2.945000000     5.863000000     2.959000000
C     3.130000000     5.016000000     1.878000000
C     3.119000000     5.448000000     0.571000000
H     2.885000000     6.494000000     0.391000000
C     3.489000000     4.631000000    -0.480000000
O     3.621000000     5.157000000    -1.730000000
C     3.926000000     4.436000000    -2.831000000
C     2.924000000     4.174000000    -3.797000000
H     1.930000000     4.600000000    -3.683000000
C     5.197000000     3.974000000    -3.007000000
H     5.981000000     4.257000000    -2.308000000
C     5.509000000     3.112000000    -4.072000000
H     6.530000000     2.781000000    -4.242000000
C     4.604000000     2.860000000    -5.165000000
H     4.879000000     2.278000000    -6.041000000
C     3.288000000     3.406000000    -4.882000000
O     2.292000000     3.177000000    -5.797000000
C     1.446000000     2.041000000    -5.770000000
C     0.157000000     1.968000000    -6.252000000
H    -0.300000000     2.803000000    -6.777000000
C    -0.699000000     0.924000000    -6.001000000
O    -2.056000000     0.921000000    -6.300000000
C    -2.923000000    -0.144000000    -6.277000000
C    -2.981000000    -1.104000000    -7.297000000
H    -2.290000000    -1.107000000    -8.136000000
C    -3.816000000    -2.205000000    -7.173000000
H    -3.801000000    -3.113000000    -7.770000000
C    -4.757000000    -2.160000000    -6.119000000
H    -5.490000000    -2.951000000    -5.988000000
C    -4.785000000    -1.125000000    -5.162000000
C    -3.774000000    -0.158000000    -5.140000000
H    -3.545000000     0.571000000    -4.368000000
C    -1.349000000     1.903000000    -2.081000000
H    -1.191000000     2.593000000    -2.905000000
C    -0.320000000     1.042000000    -1.663000000
H     0.682000000     1.055000000    -2.084000000
C    -0.529000000     0.151000000    -0.611000000
H     0.315000000    -0.433000000    -0.294000000
C    -1.708000000     0.055000000    -0.013000000
H    -1.884000000    -0.679000000     0.770000000
C    -2.749000000     0.861000000    -0.465000000
H    -3.744000000     0.859000000    -0.027000000
C    -2.570000000     1.769000000    -1.509000000
C    -3.743000000     2.656000000    -1.987000000
O    -4.703000000     2.788000000    -1.304000000
O    -3.588000000     3.201000000    -3.032000000
O    -4.276000000     6.220000000    -0.414000000
H    -4.576000000     6.324000000    -1.318000000
H    -4.441000000     5.299000000    -0.212000000
O    -6.389000000     6.380000000    -5.174000000
H    -6.164000000     6.937000000    -5.919000000
H    -5.788000000     6.651000000    -4.481000000
O    -1.361000000     6.403000000    -1.232000000
H    -0.760000000     5.958000000    -0.634000000
H    -2.179000000     6.474000000    -0.740000000
O    -2.720000000     4.508000000     1.652000000
H    -3.192000000     4.402000000     2.478000000
H    -2.698000000     5.454000000     1.508000000
O    -9.736000000     4.527000000    -2.204000000
H   -10.153000000     4.165000000    -2.986000000
H    -8.979000000     3.962000000    -2.053000000
O    -5.513000000     3.457000000    -4.935000000
H    -5.932000000     4.305000000    -4.789000000
H    -4.937000000     3.341000000    -4.179000000
O    -6.680000000     1.324000000    -6.320000000
H    -7.131000000     0.762000000    -5.689000000
H    -6.159000000     1.918000000    -5.781000000
O    -5.990000000     4.063000000     0.647000000
H    -6.635000000     3.422000000     0.946000000
H    -5.487000000     3.601000000    -0.024000000
O    -0.375000000     7.327000000    -3.793000000
H    -0.654000000     6.853000000    -3.009000000
H    -1.007000000     8.040000000    -3.879000000
O    -5.927000000     5.821000000     2.919000000
H    -6.017000000     6.475000000     2.226000000
H    -5.804000000     4.994000000     2.453000000
O    -9.113000000     2.099000000    -3.951000000
H    -8.517000000     2.050000000    -3.204000000
H    -8.939000000     2.956000000    -4.341000000
O    -4.135000000     5.797000000    -3.377000000
H    -3.261000000     6.182000000    -3.321000000
H    -3.996000000     4.863000000    -3.219000000
O    -8.282000000     2.520000000     0.835000000
H    -8.870000000     3.076000000     1.346000000
H    -8.759000000     1.697000000     0.731000000
O    -7.567000000     6.671000000     0.329000000
H    -7.334000000     6.869000000    -0.579000000
H    -7.665000000     5.719000000     0.349000000
O    -4.049000000     3.029000000    -7.941000000
H    -4.792000000     3.242000000    -7.375000000
H    -3.283000000     3.327000000    -7.451000000
O    -7.388000000     2.773000000    -2.022000000
H    -6.441000000     2.805000000    -2.159000000
H    -7.488000000     2.483000000    -1.115000000
O    -2.550000000     4.277000000    -5.732000000
H    -3.500000000     4.390000000    -5.766000000
H    -2.397000000     3.770000000    -4.935000000
O    -7.107000000     7.092000000    -2.504000000
H    -7.345000000     6.602000000    -3.290000000
H    -7.468000000     7.967000000    -2.648000000
O     0.030000000     4.482000000     0.425000000
H    -0.870000000     4.160000000     0.472000000
H     0.562000000     3.693000000     0.319000000
