215
-1464.46805
C    -1.095000000     1.770000000     4.499000000
H    -0.090000000     2.140000000     4.311000000
C    -1.468000000     0.383000000     4.534000000
C    -2.786000000     0.076000000     4.708000000
H    -3.047000000    -0.975000000     4.799000000
C    -0.396000000    -0.654000000     4.189000000
O     0.841000000    -0.396000000     4.848000000
H    -0.383000000    -0.657000000     3.089000000
O    -0.803000000    -2.013000000     4.606000000
C    -0.551000000    -3.069000000     3.719000000
C    -1.514000000    -3.319000000     2.748000000
H    -2.469000000    -2.864000000     2.997000000
C    -1.322000000    -4.116000000     1.605000000
O    -2.386000000    -4.354000000     0.824000000
C    -0.066000000    -4.689000000     1.388000000
C     0.309000000    -5.627000000     0.237000000
H     1.187000000    -6.235000000     0.467000000
C     0.610000000    -4.803000000    -0.970000000
C     1.961000000    -4.473000000    -1.264000000
H     2.758000000    -4.780000000    -0.592000000
H    -0.504000000    -6.332000000     0.058000000
C     0.993000000    -4.430000000     2.270000000
H     1.946000000    -4.948000000     2.204000000
C     0.732000000    -3.498000000     3.365000000
C     1.894000000    -3.038000000     4.192000000
H     2.693000000    -3.782000000     4.226000000
H     1.610000000    -2.804000000     5.221000000
C     2.550000000    -1.760000000     3.786000000
C     3.597000000    -1.837000000     2.875000000
H     3.947000000    -2.848000000     2.683000000
C     2.051000000    -0.483000000     4.122000000
C     2.670000000     0.697000000     3.663000000
H     2.344000000     1.680000000     3.993000000
C     3.724000000     0.576000000     2.748000000
O     4.147000000     1.745000000     2.198000000
C     3.722000000     2.060000000     0.849000000
C     3.533000000     3.511000000     0.750000000
C     3.564000000     4.198000000    -0.463000000
H     3.744000000     3.655000000    -1.387000000
C     3.118000000     4.256000000     1.884000000
H     3.072000000     3.804000000     2.872000000
O     4.775000000     1.692000000    -0.047000000
H     2.815000000     1.477000000     0.630000000
C     4.203000000    -0.724000000     2.356000000
C     5.392000000    -0.812000000     1.380000000
H     5.976000000    -1.723000000     1.530000000
H     6.124000000    -0.023000000     1.564000000
C     4.872000000    -0.750000000    -0.041000000
C     4.638000000    -1.934000000    -0.718000000
H     4.888000000    -2.841000000    -0.175000000
C     4.540000000     0.475000000    -0.641000000
C     3.983000000     0.520000000    -1.911000000
H     3.566000000     1.451000000    -2.286000000
C     3.792000000    -0.675000000    -2.623000000
O     3.121000000    -0.663000000    -3.810000000
C     1.688000000    -0.934000000    -3.871000000
C     0.909000000     0.134000000    -4.728000000
C     1.099000000     1.490000000    -4.486000000
H     1.960000000     1.841000000    -3.923000000
C    -0.229000000    -0.203000000    -5.458000000
H    -0.513000000    -1.247000000    -5.564000000
O     1.333000000    -2.334000000    -4.239000000
H     1.291000000    -0.674000000    -2.878000000
C     4.133000000    -1.957000000    -2.043000000
C     3.668000000    -3.280000000    -2.638000000
H     4.368000000    -4.048000000    -2.301000000
H     3.705000000    -3.318000000    -3.728000000
C     2.213000000    -3.551000000    -2.318000000
C     1.182000000    -3.120000000    -3.111000000
C    -0.151000000    -3.559000000    -2.917000000
H    -0.954000000    -3.353000000    -3.621000000
C    -0.421000000    -4.274000000    -1.775000000
O    -1.724000000    -4.514000000    -1.449000000
C    -2.276000000    -3.657000000    -0.401000000
H    -1.606000000    -2.817000000    -0.167000000
C    -3.533000000    -2.994000000    -0.838000000
C    -4.357000000    -2.289000000     0.055000000
H    -4.061000000    -2.362000000     1.098000000
C    -3.883000000    -2.955000000    -2.243000000
H    -3.312000000    -3.458000000    -3.019000000
C    -5.083000000    -2.301000000    -2.582000000
O    -5.416000000    -2.314000000    -3.862000000
C    -5.858000000    -1.633000000    -1.642000000
H    -6.778000000    -1.149000000    -1.958000000
C    -5.487000000    -1.592000000    -0.310000000
O    -6.357000000    -0.934000000     0.585000000
C    -6.342000000    -1.010000000     1.962000000
C    -5.730000000    -0.035000000     2.738000000
H    -5.124000000     0.746000000     2.287000000
C    -6.984000000    -2.086000000     2.607000000
H    -7.560000000    -2.814000000     2.041000000
C    -6.985000000    -2.186000000     4.026000000
H    -7.436000000    -3.036000000     4.532000000
C    -6.326000000    -1.207000000     4.784000000
H    -6.349000000    -1.298000000     5.867000000
C    -5.715000000    -0.136000000     4.151000000
O    -5.023000000     0.781000000     4.866000000
C    -3.713000000     1.106000000     4.788000000
C    -3.370000000     2.449000000     4.611000000
H    -4.160000000     3.193000000     4.550000000
C    -2.022000000     2.800000000     4.524000000
O    -1.710000000     4.117000000     4.281000000
C    -0.450000000     4.649000000     4.568000000
C     0.331000000     5.268000000     3.598000000
H    -0.119000000     5.271000000     2.608000000
C     0.023000000     4.474000000     5.834000000
H    -0.462000000     3.971000000     6.667000000
C     1.257000000     5.066000000     6.186000000
H     1.675000000     5.016000000     7.189000000
C     2.069000000     5.697000000     5.196000000
H     2.953000000     6.211000000     5.565000000
C     1.582000000     5.675000000     3.895000000
O     2.273000000     6.306000000     2.792000000
C     2.745000000     5.534000000     1.782000000
C     2.740000000     6.163000000     0.584000000
H     2.465000000     7.205000000     0.443000000
C     3.033000000     5.508000000    -0.555000000
O     3.317000000     6.190000000    -1.709000000
C     3.038000000     5.516000000    -2.886000000
C     1.768000000     4.827000000    -3.135000000
H     1.084000000     4.638000000    -2.311000000
C     3.861000000     5.835000000    -3.955000000
H     4.676000000     6.551000000    -3.887000000
C     3.519000000     5.429000000    -5.286000000
H     4.067000000     5.788000000    -6.153000000
C     2.339000000     4.714000000    -5.490000000
H     2.115000000     4.479000000    -6.528000000
C     1.481000000     4.424000000    -4.407000000
O     0.292000000     3.719000000    -4.590000000
C     0.166000000     2.388000000    -4.948000000
C    -0.928000000     2.013000000    -5.693000000
H    -1.606000000     2.750000000    -6.117000000
C    -1.160000000     0.664000000    -5.927000000
O    -2.321000000     0.245000000    -6.632000000
C    -3.005000000    -0.913000000    -6.346000000
C    -2.718000000    -2.124000000    -7.020000000
H    -1.940000000    -2.161000000    -7.779000000
C    -3.361000000    -3.281000000    -6.688000000
H    -3.223000000    -4.196000000    -7.258000000
C    -4.277000000    -3.293000000    -5.698000000
H    -4.785000000    -4.230000000    -5.484000000
C    -4.498000000    -2.177000000    -4.906000000
C    -3.912000000    -0.967000000    -5.218000000
H    -4.225000000    -0.074000000    -4.682000000
C    -3.329000000     0.722000000    -1.097000000
H    -4.050000000     0.699000000    -1.910000000
C    -2.060000000     0.071000000    -1.303000000
H    -1.921000000    -0.553000000    -2.182000000
C    -1.105000000     0.103000000    -0.339000000
H    -0.129000000    -0.379000000    -0.484000000
C    -1.365000000     0.859000000     0.818000000
H    -0.660000000     0.885000000     1.645000000
C    -2.560000000     1.609000000     0.983000000
H    -2.660000000     2.250000000     1.855000000
C    -3.554000000     1.560000000     0.005000000
C    -4.919000000     2.192000000     0.137000000
O    -5.138000000     2.887000000     1.116000000
O    -5.711000000     2.230000000    -0.808000000
O    -3.358000000     5.167000000     1.268000000
H    -3.433000000     5.391000000     2.196000000
H    -3.930000000     4.407000000     1.159000000
O    -4.990000000     2.906000000    -3.553000000
H    -5.123000000     2.510000000    -2.692000000
H    -4.579000000     3.750000000    -3.368000000
O    -7.674000000     3.813000000    -1.741000000
H    -6.847000000     3.353000000    -1.596000000
H    -7.952000000     4.086000000    -0.867000000
O    -8.183000000     4.117000000    -4.386000000
H    -8.075000000     4.105000000    -3.435000000
H    -7.358000000     3.772000000    -4.725000000
O   -10.360000000     0.091000000     0.353000000
H   -10.001000000    -0.747000000     0.061000000
H    -9.778000000     0.748000000    -0.030000000
O    -3.236000000     4.872000000    -3.741000000
H    -2.864000000     5.023000000    -4.610000000
H    -2.481000000     4.666000000    -3.190000000
O    -6.974000000     4.672000000     0.810000000
H    -6.469000000     5.421000000     0.494000000
H    -6.315000000     4.019000000     1.043000000
O    -4.548000000     7.078000000    -0.288000000
H    -3.964000000     6.364000000    -0.030000000
H    -4.695000000     6.942000000    -1.224000000
O    -6.544000000     2.931000000     6.260000000
H    -6.932000000     3.794000000     6.405000000
H    -6.606000000     2.797000000     5.314000000
O    -1.535000000     3.827000000    -1.721000000
H    -1.172000000     4.495000000    -1.140000000
H    -1.610000000     3.047000000    -1.172000000
O    -6.961000000     3.191000000     3.554000000
H    -6.269000000     3.090000000     2.900000000
H    -7.731000000     2.790000000     3.152000000
O    -8.610000000     2.434000000     1.524000000
H    -8.233000000     2.011000000     0.752000000
H    -8.417000000     3.364000000     1.406000000
O    -5.388000000     6.490000000    -2.886000000
H    -5.042000000     7.248000000    -3.357000000
H    -4.949000000     5.739000000    -3.285000000
O   -10.298000000     3.014000000    -1.953000000
H   -10.865000000     3.747000000    -1.714000000
H    -9.422000000     3.395000000    -2.005000000
O    -7.961000000     0.988000000    -0.993000000
H    -7.105000000     1.231000000    -0.640000000
H    -7.878000000     1.122000000    -1.937000000
O    -5.615000000     2.300000000    -6.196000000
H    -5.466000000     2.220000000    -5.254000000
H    -4.961000000     2.934000000    -6.490000000
O    -4.016000000     6.275000000     3.612000000
H    -3.161000000     6.665000000     3.791000000
H    -4.624000000     6.768000000     4.163000000
O    -1.137000000     6.110000000     0.356000000
H    -1.235000000     7.043000000     0.546000000
H    -1.923000000     5.706000000     0.725000000
O    -9.512000000     5.673000000     1.173000000
H    -9.285000000     6.090000000     2.005000000
H    -8.701000000     5.696000000     0.665000000
