215
-1448.04890
C    -1.440000000     2.476000000     3.983000000
H    -0.363000000     2.337000000     4.033000000
C    -2.103000000     1.257000000     4.121000000
C    -3.509000000     1.167000000     4.096000000
H    -4.053000000     0.227000000     4.035000000
C    -1.299000000    -0.017000000     3.991000000
O    -0.048000000     0.007000000     4.740000000
H    -1.084000000    -0.119000000     2.917000000
O    -1.948000000    -1.256000000     4.427000000
C    -1.810000000    -2.323000000     3.593000000
C    -2.775000000    -2.579000000     2.627000000
H    -3.667000000    -1.960000000     2.678000000
C    -2.599000000    -3.484000000     1.635000000
O    -3.564000000    -3.511000000     0.712000000
C    -1.479000000    -4.290000000     1.719000000
C    -1.268000000    -5.421000000     0.711000000
H    -0.648000000    -6.232000000     1.100000000
C    -0.594000000    -4.852000000    -0.541000000
C     0.788000000    -4.785000000    -0.603000000
H     1.436000000    -5.349000000     0.064000000
H    -2.234000000    -5.857000000     0.449000000
C    -0.537000000    -4.152000000     2.709000000
H     0.247000000    -4.885000000     2.880000000
C    -0.652000000    -3.172000000     3.637000000
C     0.458000000    -2.914000000     4.687000000
H     1.008000000    -3.833000000     4.898000000
H    -0.100000000    -2.493000000     5.527000000
C     1.385000000    -1.888000000     4.076000000
C     2.616000000    -2.225000000     3.523000000
H     2.781000000    -3.298000000     3.473000000
C     1.066000000    -0.528000000     4.097000000
C     1.979000000     0.478000000     3.678000000
H     1.827000000     1.547000000     3.806000000
C     3.237000000     0.064000000     3.173000000
O     4.108000000     1.014000000     2.728000000
C     4.142000000     1.282000000     1.312000000
C     4.300000000     2.751000000     0.947000000
C     5.006000000     3.209000000    -0.180000000
H     5.433000000     2.454000000    -0.836000000
C     3.605000000     3.672000000     1.731000000
H     3.012000000     3.346000000     2.582000000
O     5.144000000     0.427000000     0.677000000
H     3.146000000     1.002000000     0.938000000
C     3.508000000    -1.318000000     3.035000000
C     4.763000000    -1.794000000     2.316000000
H     4.891000000    -2.824000000     2.654000000
H     5.540000000    -1.139000000     2.718000000
C     4.526000000    -1.860000000     0.801000000
C     4.085000000    -2.999000000     0.221000000
H     3.832000000    -3.851000000     0.847000000
C     4.746000000    -0.740000000     0.031000000
C     4.509000000    -0.685000000    -1.326000000
H     4.746000000     0.197000000    -1.915000000
C     3.793000000    -1.746000000    -1.899000000
O     3.361000000    -1.689000000    -3.198000000
C     1.889000000    -1.632000000    -3.414000000
C     1.589000000    -0.560000000    -4.464000000
C     2.170000000     0.673000000    -4.288000000
H     2.859000000     0.796000000    -3.456000000
C     0.532000000    -0.653000000    -5.331000000
H     0.016000000    -1.604000000    -5.441000000
O     1.337000000    -2.929000000    -3.703000000
H     1.429000000    -1.229000000    -2.500000000
C     3.644000000    -2.960000000    -1.106000000
C     2.994000000    -4.169000000    -1.756000000
H     3.323000000    -4.948000000    -1.065000000
H     3.320000000    -4.365000000    -2.780000000
C     1.455000000    -4.157000000    -1.641000000
C     0.777000000    -3.598000000    -2.667000000
C    -0.600000000    -3.495000000    -2.574000000
H    -1.153000000    -2.984000000    -3.358000000
C    -1.294000000    -4.169000000    -1.507000000
O    -2.674000000    -4.026000000    -1.362000000
C    -3.078000000    -2.917000000    -0.520000000
H    -2.174000000    -2.318000000    -0.336000000
C    -4.220000000    -1.945000000    -1.148000000
C    -5.135000000    -1.250000000    -0.284000000
H    -5.129000000    -1.321000000     0.801000000
C    -4.266000000    -1.764000000    -2.566000000
H    -3.510000000    -2.248000000    -3.179000000
C    -5.239000000    -0.914000000    -3.093000000
O    -5.315000000    -0.635000000    -4.431000000
C    -6.173000000    -0.316000000    -2.256000000
H    -6.971000000     0.249000000    -2.731000000
C    -6.135000000    -0.428000000    -0.845000000
O    -6.948000000     0.367000000    -0.145000000
C    -7.073000000     0.442000000     1.227000000
C    -6.432000000     1.391000000     1.986000000
H    -5.829000000     2.193000000     1.567000000
C    -7.750000000    -0.532000000     1.893000000
H    -8.299000000    -1.288000000     1.338000000
C    -7.692000000    -0.650000000     3.293000000
H    -8.291000000    -1.438000000     3.744000000
C    -6.896000000     0.275000000     4.008000000
H    -6.745000000     0.206000000     5.082000000
C    -6.304000000     1.297000000     3.388000000
O    -5.602000000     2.216000000     4.163000000
C    -4.231000000     2.317000000     4.041000000
C    -3.544000000     3.572000000     4.075000000
H    -4.189000000     4.434000000     3.926000000
C    -2.125000000     3.697000000     3.945000000
O    -1.491000000     4.899000000     3.833000000
C    -0.129000000     5.116000000     3.970000000
C     0.657000000     5.533000000     2.852000000
H     0.253000000     5.784000000     1.874000000
C     0.469000000     4.796000000     5.176000000
H    -0.198000000     4.497000000     5.980000000
C     1.852000000     5.045000000     5.386000000
H     2.276000000     4.932000000     6.381000000
C     2.606000000     5.541000000     4.370000000
H     3.665000000     5.776000000     4.445000000
C     2.041000000     5.702000000     3.058000000
O     2.907000000     6.012000000     2.013000000
C     3.592000000     5.028000000     1.328000000
C     4.245000000     5.423000000     0.184000000
H     4.299000000     6.475000000    -0.085000000
C     4.899000000     4.510000000    -0.605000000
O     5.590000000     4.851000000    -1.747000000
C     5.312000000     4.153000000    -2.900000000
C     4.026000000     3.813000000    -3.239000000
H     3.229000000     4.089000000    -2.554000000
C     6.332000000     3.660000000    -3.697000000
H     7.306000000     3.809000000    -3.239000000
C     6.149000000     2.822000000    -4.851000000
H     6.979000000     2.238000000    -5.240000000
C     4.814000000     2.645000000    -5.308000000
H     4.669000000     2.024000000    -6.189000000
C     3.767000000     3.186000000    -4.468000000
O     2.447000000     2.986000000    -4.906000000
C     1.768000000     1.770000000    -4.999000000
C     0.722000000     1.639000000    -5.855000000
H     0.401000000     2.570000000    -6.315000000
C     0.039000000     0.459000000    -6.008000000
O    -1.145000000     0.439000000    -6.692000000
C    -2.191000000    -0.411000000    -6.397000000
C    -2.085000000    -1.703000000    -6.816000000
H    -1.342000000    -2.056000000    -7.527000000
C    -3.112000000    -2.685000000    -6.483000000
H    -3.013000000    -3.681000000    -6.907000000
C    -4.224000000    -2.258000000    -5.697000000
H    -5.032000000    -2.959000000    -5.503000000
C    -4.300000000    -0.937000000    -5.301000000
C    -3.265000000    -0.004000000    -5.588000000
H    -3.314000000     0.975000000    -5.119000000
C     0.241000000     2.441000000    -1.977000000
H     0.451000000     3.430000000    -2.376000000
C     1.229000000     1.800000000    -1.193000000
H     2.248000000     2.178000000    -1.167000000
C     0.915000000     0.662000000    -0.502000000
H     1.609000000     0.177000000     0.126000000
C    -0.324000000     0.039000000    -0.612000000
H    -0.398000000    -0.928000000    -0.120000000
C    -1.320000000     0.625000000    -1.383000000
H    -2.295000000     0.150000000    -1.466000000
C    -1.050000000     1.878000000    -2.019000000
C    -2.043000000     2.593000000    -2.842000000
O    -3.123000000     2.086000000    -2.931000000
O    -1.766000000     3.654000000    -3.357000000
O    -3.944000000     3.337000000    -0.387000000
H    -4.895000000     3.221000000    -0.385000000
H    -3.656000000     2.932000000    -1.205000000
O     0.092000000     5.121000000    -5.049000000
H     0.988000000     4.790000000    -4.985000000
H    -0.385000000     4.655000000    -4.362000000
O    -3.375000000     5.521000000     1.382000000
H    -2.522000000     5.088000000     1.377000000
H    -4.008000000     4.804000000     1.405000000
O    -5.202000000     5.191000000    -4.350000000
H    -5.428000000     4.281000000    -4.161000000
H    -5.984000000     5.688000000    -4.108000000
O    -3.010000000     8.179000000    -5.913000000
H    -2.884000000     7.808000000    -5.040000000
H    -3.955000000     8.316000000    -5.981000000
O    -6.073000000     2.815000000    -3.394000000
H    -5.229000000     2.384000000    -3.258000000
H    -6.515000000     2.273000000    -4.048000000
O    -6.305000000     1.395000000    -5.789000000
H    -5.945000000     0.530000000    -5.595000000
H    -6.780000000     1.278000000    -6.612000000
O    -2.342000000     4.407000000    -9.098000000
H    -2.625000000     4.250000000    -8.197000000
H    -2.714000000     5.261000000    -9.320000000
O    -0.445000000     5.382000000    -1.372000000
H    -0.822000000     4.881000000    -0.649000000
H    -0.951000000     5.113000000    -2.139000000
O    -2.449000000     4.245000000    -6.286000000
H    -2.633000000     3.730000000    -5.501000000
H    -1.877000000     4.949000000    -5.982000000
O    -5.096000000     4.692000000    -7.766000000
H    -5.402000000     5.596000000    -7.838000000
H    -4.393000000     4.728000000    -7.117000000
O    -2.721000000     7.945000000    -1.553000000
H    -1.780000000     8.120000000    -1.525000000
H    -2.792000000     7.089000000    -1.976000000
O    -6.373000000     5.151000000     1.639000000
H    -7.300000000     5.154000000     1.875000000
H    -6.349000000     4.758000000     0.767000000
O     0.289000000     7.960000000    -4.922000000
H     0.260000000     8.043000000    -5.876000000
H    -0.069000000     7.090000000    -4.747000000
O    -6.742000000     3.917000000    -0.878000000
H    -7.232000000     3.208000000    -0.461000000
H    -6.579000000     3.604000000    -1.768000000
O    -2.830000000     6.082000000    -3.426000000
H    -2.520000000     5.179000000    -3.359000000
H    -3.689000000     6.010000000    -3.842000000
O     0.540000000     6.035000000    -7.873000000
H    -0.381000000     6.298000000    -7.872000000
H     0.533000000     5.136000000    -7.546000000
O    -1.494000000     3.521000000     0.759000000
H    -0.920000000     2.784000000     0.552000000
H    -2.360000000     3.242000000     0.459000000
O     2.062000000     6.656000000    -1.742000000
H     1.248000000     6.239000000    -1.461000000
H     2.269000000     6.239000000    -2.578000000
