215
-1443.95033
C    -1.750000000     2.519000000     4.356000000
H    -0.719000000     2.373000000     4.666000000
C    -2.416000000     1.321000000     4.053000000
C    -3.782000000     1.319000000     3.750000000
H    -4.284000000     0.387000000     3.506000000
C    -1.629000000    -0.025000000     4.035000000
O    -0.437000000     0.047000000     4.882000000
H    -1.375000000    -0.194000000     2.978000000
O    -2.370000000    -1.228000000     4.381000000
C    -2.145000000    -2.327000000     3.584000000
C    -2.990000000    -2.445000000     2.512000000
H    -3.983000000    -2.009000000     2.440000000
C    -2.729000000    -3.427000000     1.542000000
O    -3.476000000    -3.465000000     0.427000000
C    -1.545000000    -4.244000000     1.680000000
C    -1.194000000    -5.380000000     0.667000000
H    -0.575000000    -6.149000000     1.134000000
C    -0.480000000    -4.840000000    -0.536000000
C     0.923000000    -4.942000000    -0.523000000
H     1.318000000    -5.411000000     0.374000000
H    -2.067000000    -5.905000000     0.275000000
C    -0.703000000    -4.018000000     2.763000000
H     0.267000000    -4.508000000     2.805000000
C    -0.989000000    -3.110000000     3.763000000
C     0.012000000    -2.810000000     4.820000000
H     0.570000000    -3.694000000     5.134000000
H    -0.505000000    -2.462000000     5.717000000
C     1.004000000    -1.796000000     4.391000000
C     2.180000000    -2.161000000     3.766000000
H     2.415000000    -3.214000000     3.638000000
C     0.790000000    -0.433000000     4.468000000
C     1.775000000     0.490000000     4.193000000
H     1.604000000     1.527000000     4.470000000
C     2.981000000     0.058000000     3.594000000
O     3.905000000     1.034000000     3.189000000
C     3.984000000     1.162000000     1.729000000
C     3.999000000     2.645000000     1.362000000
C     4.585000000     3.136000000     0.171000000
H     5.095000000     2.417000000    -0.466000000
C     3.150000000     3.496000000     2.018000000
H     2.634000000     3.143000000     2.907000000
O     5.029000000     0.394000000     1.136000000
H     3.023000000     0.802000000     1.331000000
C     3.240000000    -1.335000000     3.415000000
C     4.458000000    -1.858000000     2.846000000
H     4.642000000    -2.886000000     3.162000000
H     5.335000000    -1.272000000     3.130000000
C     4.442000000    -1.907000000     1.278000000
C     4.040000000    -3.089000000     0.646000000
H     3.829000000    -3.987000000     1.221000000
C     4.746000000    -0.766000000     0.529000000
C     4.505000000    -0.742000000    -0.807000000
H     4.379000000     0.235000000    -1.268000000
C     3.910000000    -1.878000000    -1.461000000
O     3.544000000    -1.708000000    -2.742000000
C     2.145000000    -1.752000000    -3.111000000
C     1.790000000    -0.691000000    -4.181000000
C     2.490000000     0.509000000    -4.165000000
H     3.178000000     0.647000000    -3.335000000
C     0.839000000    -0.948000000    -5.130000000
H     0.351000000    -1.904000000    -5.301000000
O     1.826000000    -3.137000000    -3.551000000
H     1.585000000    -1.393000000    -2.235000000
C     3.727000000    -3.062000000    -0.748000000
C     3.217000000    -4.379000000    -1.384000000
H     3.517000000    -5.166000000    -0.689000000
H     3.662000000    -4.640000000    -2.347000000
C     1.685000000    -4.376000000    -1.569000000
C     1.082000000    -3.808000000    -2.645000000
C    -0.279000000    -3.663000000    -2.671000000
H    -0.793000000    -3.061000000    -3.416000000
C    -1.068000000    -4.245000000    -1.655000000
O    -2.389000000    -3.967000000    -1.616000000
C    -2.929000000    -2.905000000    -0.764000000
H    -2.106000000    -2.229000000    -0.492000000
C    -3.901000000    -2.076000000    -1.507000000
C    -4.702000000    -1.105000000    -0.831000000
H    -4.751000000    -1.037000000     0.252000000
C    -3.794000000    -1.955000000    -2.852000000
H    -3.176000000    -2.683000000    -3.370000000
C    -4.623000000    -1.117000000    -3.630000000
O    -4.611000000    -1.025000000    -5.024000000
C    -5.294000000    -0.128000000    -2.949000000
H    -5.867000000     0.665000000    -3.422000000
C    -5.310000000    -0.097000000    -1.537000000
O    -6.014000000     0.936000000    -0.925000000
C    -6.355000000     0.876000000     0.415000000
C    -5.935000000     1.821000000     1.275000000
H    -5.157000000     2.521000000     0.982000000
C    -7.279000000    -0.061000000     0.816000000
H    -7.738000000    -0.766000000     0.128000000
C    -7.762000000    -0.091000000     2.170000000
H    -8.392000000    -0.902000000     2.527000000
C    -7.254000000     0.873000000     3.050000000
H    -7.577000000     0.900000000     4.087000000
C    -6.361000000     1.832000000     2.589000000
O    -5.847000000     2.627000000     3.568000000
C    -4.517000000     2.528000000     3.812000000
C    -3.858000000     3.636000000     4.188000000
H    -4.388000000     4.578000000     4.301000000
C    -2.472000000     3.658000000     4.470000000
O    -1.924000000     4.794000000     5.015000000
C    -0.650000000     5.181000000     4.728000000
C    -0.106000000     5.082000000     3.466000000
H    -0.756000000     4.828000000     2.633000000
C     0.191000000     5.545000000     5.795000000
H    -0.186000000     5.723000000     6.799000000
C     1.548000000     5.725000000     5.652000000
H     2.233000000     5.894000000     6.479000000
C     2.101000000     5.636000000     4.379000000
H     3.146000000     5.905000000     4.244000000
C     1.283000000     5.314000000     3.311000000
O     1.723000000     5.383000000     1.993000000
C     2.860000000     4.746000000     1.519000000
C     3.604000000     5.268000000     0.475000000
H     3.350000000     6.256000000     0.100000000
C     4.398000000     4.415000000    -0.302000000
O     5.132000000     4.879000000    -1.424000000
C     5.144000000     4.145000000    -2.591000000
C     3.968000000     3.868000000    -3.237000000
H     2.962000000     4.081000000    -2.883000000
C     6.408000000     3.784000000    -3.088000000
H     7.304000000     4.013000000    -2.518000000
C     6.385000000     2.980000000    -4.249000000
H     7.367000000     2.658000000    -4.586000000
C     5.187000000     2.608000000    -4.872000000
H     5.185000000     1.967000000    -5.750000000
C     3.982000000     3.094000000    -4.388000000
O     2.802000000     2.764000000    -5.036000000
C     2.108000000     1.549000000    -5.026000000
C     1.165000000     1.248000000    -5.981000000
H     0.712000000     2.058000000    -6.547000000
C     0.457000000     0.080000000    -5.993000000
O    -0.458000000    -0.088000000    -6.996000000
C    -1.545000000    -0.921000000    -6.862000000
C    -1.734000000    -1.872000000    -7.823000000
H    -0.971000000    -2.041000000    -8.579000000
C    -2.871000000    -2.649000000    -7.755000000
H    -3.151000000    -3.501000000    -8.369000000
C    -3.842000000    -2.475000000    -6.682000000
H    -4.793000000    -2.966000000    -6.870000000
C    -3.610000000    -1.476000000    -5.803000000
C    -2.483000000    -0.756000000    -5.842000000
H    -2.447000000     0.118000000    -5.196000000
C     0.132000000     2.920000000    -2.065000000
H     0.705000000     3.407000000    -2.850000000
C     0.613000000     2.864000000    -0.751000000
H     1.575000000     3.284000000    -0.469000000
C    -0.170000000     2.391000000     0.303000000
H     0.211000000     2.416000000     1.281000000
C    -1.421000000     1.902000000     0.056000000
H    -2.067000000     1.458000000     0.810000000
C    -1.906000000     1.905000000    -1.256000000
H    -2.869000000     1.423000000    -1.405000000
C    -1.154000000     2.484000000    -2.339000000
C    -1.732000000     2.643000000    -3.737000000
O    -2.920000000     2.430000000    -3.980000000
O    -1.055000000     3.250000000    -4.508000000
O    -4.747000000     4.014000000    -2.927000000
H    -4.271000000     4.723000000    -3.359000000
H    -4.437000000     3.219000000    -3.361000000
O     0.711000000     5.360000000    -4.920000000
H     1.544000000     5.413000000    -5.389000000
H     0.563000000     4.422000000    -4.799000000
O    -4.186000000     7.242000000     0.432000000
H    -3.570000000     6.531000000     0.255000000
H    -4.995000000     6.971000000    -0.002000000
O    -5.559000000     4.618000000    -6.380000000
H    -5.626000000     4.543000000    -7.331000000
H    -5.293000000     3.746000000    -6.089000000
O    -4.336000000     2.121000000    -6.111000000
H    -3.671000000     2.276000000    -5.440000000
H    -4.342000000     1.171000000    -6.228000000
O    -2.076000000     1.183000000    -8.908000000
H    -1.958000000     1.885000000    -8.268000000
H    -2.462000000     0.465000000    -8.407000000
O    -4.538000000     7.793000000    -3.400000000
H    -3.833000000     8.137000000    -2.851000000
H    -4.192000000     6.971000000    -3.747000000
O    -1.495000000     8.095000000    -1.271000000
H    -0.626000000     8.037000000    -1.669000000
H    -1.654000000     7.220000000    -0.915000000
O     0.760000000     7.643000000    -3.314000000
H     0.722000000     6.804000000    -3.773000000
H     1.452000000     8.130000000    -3.762000000
O    -7.346000000     1.864000000    -6.239000000
H    -7.252000000     2.563000000    -6.886000000
H    -6.512000000     1.395000000    -6.270000000
O    -0.233000000     6.363000000    -7.472000000
H    -0.057000000     6.112000000    -6.565000000
H     0.069000000     7.269000000    -7.532000000
O    -2.074000000     5.007000000    -9.282000000
H    -1.738000000     4.826000000    -8.403000000
H    -2.153000000     5.960000000    -9.316000000
O    -3.016000000     5.442000000    -4.457000000
H    -2.429000000     4.687000000    -4.478000000
H    -2.476000000     6.174000000    -4.757000000
O    -7.708000000     4.507000000    -4.708000000
H    -7.685000000     3.799000000    -4.065000000
H    -6.937000000     4.358000000    -5.256000000
O    -1.605000000     8.091000000    -4.964000000
H    -1.639000000     9.044000000    -5.047000000
H    -1.103000000     7.938000000    -4.163000000
O    -5.559000000     7.338000000    -6.048000000
H    -5.525000000     6.390000000    -6.174000000
H    -5.310000000     7.467000000    -5.133000000
O    -6.967000000     3.827000000    -1.324000000
H    -6.230000000     3.997000000    -1.910000000
H    -7.121000000     2.885000000    -1.400000000
O    -1.785000000     3.299000000    -6.988000000
H    -1.431000000     3.097000000    -6.122000000
H    -2.732000000     3.342000000    -6.855000000
O    -2.510000000     5.328000000    -0.590000000
H    -3.259000000     4.993000000    -1.083000000
H    -1.838000000     4.654000000    -0.688000000
