215
-1451.51304
C    -1.409000000     2.378000000     4.239000000
H    -0.338000000     2.515000000     4.364000000
C    -2.043000000     1.183000000     4.203000000
C    -3.421000000     1.111000000     4.031000000
H    -3.855000000     0.132000000     3.848000000
C    -1.124000000    -0.088000000     4.000000000
O     0.097000000     0.066000000     4.785000000
H    -0.914000000    -0.253000000     2.933000000
O    -1.787000000    -1.312000000     4.364000000
C    -1.607000000    -2.401000000     3.603000000
C    -2.573000000    -2.688000000     2.645000000
H    -3.409000000    -2.010000000     2.492000000
C    -2.431000000    -3.739000000     1.712000000
O    -3.249000000    -3.812000000     0.600000000
C    -1.256000000    -4.471000000     1.711000000
C    -0.956000000    -5.483000000     0.709000000
H    -0.322000000    -6.283000000     1.098000000
C    -0.274000000    -4.906000000    -0.527000000
C     1.120000000    -4.837000000    -0.626000000
H     1.704000000    -5.231000000     0.202000000
H    -1.854000000    -5.955000000     0.305000000
C    -0.242000000    -4.128000000     2.615000000
H     0.710000000    -4.646000000     2.523000000
C    -0.382000000    -3.123000000     3.576000000
C     0.674000000    -2.807000000     4.550000000
H     1.245000000    -3.734000000     4.633000000
H     0.245000000    -2.476000000     5.498000000
C     1.656000000    -1.724000000     4.103000000
C     2.905000000    -2.082000000     3.528000000
H     3.172000000    -3.135000000     3.537000000
C     1.330000000    -0.357000000     4.226000000
C     2.248000000     0.604000000     3.781000000
H     1.947000000     1.634000000     3.956000000
C     3.396000000     0.214000000     3.075000000
O     4.220000000     1.185000000     2.586000000
C     4.080000000     1.513000000     1.180000000
C     4.060000000     3.032000000     0.971000000
C     4.522000000     3.457000000    -0.269000000
H     5.216000000     2.837000000    -0.830000000
C     3.422000000     3.935000000     1.803000000
H     3.194000000     3.649000000     2.826000000
O     5.065000000     0.776000000     0.406000000
H     3.131000000     1.204000000     0.718000000
C     3.759000000    -1.075000000     2.979000000
C     5.010000000    -1.476000000     2.168000000
H     5.365000000    -2.445000000     2.523000000
H     5.752000000    -0.706000000     2.388000000
C     4.602000000    -1.588000000     0.687000000
C     4.126000000    -2.786000000     0.118000000
H     3.998000000    -3.669000000     0.739000000
C     4.733000000    -0.438000000    -0.128000000
C     4.341000000    -0.501000000    -1.477000000
H     4.335000000     0.378000000    -2.116000000
C     3.879000000    -1.715000000    -2.000000000
O     3.312000000    -1.585000000    -3.217000000
C     1.865000000    -1.556000000    -3.280000000
C     1.425000000    -0.570000000    -4.302000000
C     1.855000000     0.719000000    -4.175000000
H     2.537000000     0.845000000    -3.338000000
C     0.412000000    -0.811000000    -5.162000000
H    -0.097000000    -1.768000000    -5.080000000
O     1.378000000    -2.791000000    -3.584000000
H     1.402000000    -1.224000000    -2.339000000
C     3.780000000    -2.833000000    -1.215000000
C     3.306000000    -4.138000000    -1.809000000
H     3.771000000    -4.969000000    -1.276000000
H     3.693000000    -4.271000000    -2.822000000
C     1.719000000    -4.180000000    -1.698000000
C     0.882000000    -3.588000000    -2.667000000
C    -0.490000000    -3.772000000    -2.712000000
H    -1.033000000    -3.289000000    -3.521000000
C    -1.062000000    -4.406000000    -1.616000000
O    -2.426000000    -4.133000000    -1.519000000
C    -2.834000000    -3.112000000    -0.593000000
H    -1.928000000    -2.489000000    -0.567000000
C    -3.928000000    -2.148000000    -1.048000000
C    -4.944000000    -1.499000000    -0.288000000
H    -4.959000000    -1.687000000     0.782000000
C    -3.908000000    -1.832000000    -2.382000000
H    -3.217000000    -2.371000000    -3.024000000
C    -4.838000000    -0.936000000    -2.956000000
O    -4.787000000    -0.667000000    -4.307000000
C    -5.763000000    -0.281000000    -2.183000000
H    -6.619000000     0.217000000    -2.631000000
C    -5.831000000    -0.520000000    -0.857000000
O    -6.743000000     0.190000000    -0.172000000
C    -6.836000000     0.326000000     1.248000000
C    -5.975000000     1.116000000     2.024000000
H    -5.182000000     1.753000000     1.640000000
C    -7.968000000    -0.158000000     1.866000000
H    -8.756000000    -0.756000000     1.415000000
C    -8.189000000    -0.090000000     3.286000000
H    -8.994000000    -0.624000000     3.785000000
C    -7.332000000     0.680000000     4.006000000
H    -7.614000000     0.977000000     5.013000000
C    -6.263000000     1.335000000     3.370000000
O    -5.579000000     2.211000000     4.164000000
C    -4.215000000     2.226000000     4.101000000
C    -3.588000000     3.445000000     4.237000000
H    -4.248000000     4.307000000     4.286000000
C    -2.197000000     3.531000000     4.267000000
O    -1.696000000     4.838000000     4.329000000
C    -0.408000000     5.100000000     4.405000000
C     0.346000000     5.559000000     3.267000000
H    -0.065000000     5.757000000     2.280000000
C     0.220000000     4.932000000     5.635000000
H    -0.197000000     4.478000000     6.531000000
C     1.629000000     5.093000000     5.716000000
H     2.094000000     4.972000000     6.691000000
C     2.324000000     5.403000000     4.552000000
H     3.389000000     5.612000000     4.486000000
C     1.682000000     5.670000000     3.325000000
O     2.380000000     6.119000000     2.219000000
C     3.142000000     5.265000000     1.438000000
C     3.507000000     5.645000000     0.178000000
H     3.294000000     6.621000000    -0.252000000
C     4.179000000     4.762000000    -0.643000000
O     4.547000000     5.252000000    -1.924000000
C     4.695000000     4.386000000    -2.997000000
C     3.533000000     4.085000000    -3.659000000
H     2.569000000     4.502000000    -3.380000000
C     5.853000000     3.706000000    -3.278000000
H     6.778000000     3.817000000    -2.718000000
C     5.838000000     2.730000000    -4.294000000
H     6.742000000     2.184000000    -4.553000000
C     4.615000000     2.408000000    -4.914000000
H     4.647000000     1.519000000    -5.538000000
C     3.461000000     3.078000000    -4.582000000
O     2.301000000     2.845000000    -5.297000000
C     1.590000000     1.672000000    -5.162000000
C     0.724000000     1.352000000    -6.182000000
H     0.510000000     2.044000000    -6.993000000
C     0.087000000     0.089000000    -6.131000000
O    -0.841000000    -0.350000000    -7.003000000
C    -2.013000000    -1.043000000    -6.697000000
C    -2.337000000    -2.227000000    -7.348000000
H    -1.682000000    -2.671000000    -8.093000000
C    -3.495000000    -2.873000000    -6.972000000
H    -3.779000000    -3.819000000    -7.426000000
C    -4.335000000    -2.424000000    -5.949000000
H    -5.288000000    -2.918000000    -5.774000000
C    -4.006000000    -1.274000000    -5.243000000
C    -2.793000000    -0.668000000    -5.639000000
H    -2.518000000     0.283000000    -5.188000000
C    -0.042000000     1.792000000    -1.805000000
H     0.556000000     2.307000000    -2.552000000
C     0.562000000     0.989000000    -0.781000000
H     1.639000000     0.846000000    -0.750000000
C    -0.225000000     0.254000000     0.112000000
H     0.182000000    -0.416000000     0.910000000
C    -1.579000000     0.428000000     0.123000000
H    -2.134000000    -0.069000000     0.914000000
C    -2.206000000     1.220000000    -0.876000000
H    -3.274000000     1.411000000    -0.817000000
C    -1.436000000     1.890000000    -1.843000000
C    -2.070000000     2.576000000    -3.043000000
O    -3.266000000     2.818000000    -2.903000000
O    -1.419000000     3.160000000    -3.919000000
O    -5.350000000     3.514000000    -1.529000000
H    -5.142000000     4.059000000    -0.770000000
H    -4.505000000     3.364000000    -1.954000000
O     0.163000000     5.069000000    -7.304000000
H     1.090000000     4.933000000    -7.109000000
H    -0.157000000     5.609000000    -6.581000000
O    -1.195000000     7.109000000     0.727000000
H    -1.818000000     7.710000000     1.136000000
H    -1.651000000     6.267000000     0.711000000
O    -5.454000000     5.981000000    -2.883000000
H    -5.765000000     5.220000000    -2.393000000
H    -4.604000000     5.712000000    -3.231000000
O    -4.746000000     2.225000000    -4.983000000
H    -4.162000000     2.652000000    -4.356000000
H    -4.841000000     1.332000000    -4.652000000
O    -2.934000000     6.150000000    -7.450000000
H    -3.882000000     6.254000000    -7.370000000
H    -2.733000000     5.376000000    -6.924000000
O    -0.704000000     5.749000000    -4.384000000
H    -1.485000000     5.935000000    -3.863000000
H    -0.753000000     4.810000000    -4.563000000
O    -2.900000000     3.946000000    -6.103000000
H    -3.535000000     3.232000000    -6.159000000
H    -2.400000000     3.759000000    -5.308000000
O    -6.115000000     3.503000000    -6.798000000
H    -5.559000000     3.690000000    -7.555000000
H    -5.583000000     2.928000000    -6.248000000
O    -5.394000000     6.424000000    -6.155000000
H    -5.247000000     5.482000000    -6.242000000
H    -6.302000000     6.550000000    -6.429000000
O    -3.320000000     7.401000000    -4.233000000
H    -3.573000000     6.764000000    -4.900000000
H    -3.311000000     6.902000000    -3.416000000
O    -5.338000000     5.013000000     0.741000000
H    -5.797000000     5.029000000     1.581000000
H    -5.449000000     5.897000000     0.391000000
O    -1.141000000     8.683000000    -5.624000000
H    -1.820000000     9.088000000    -6.163000000
H    -1.566000000     7.914000000    -5.242000000
O    -4.959000000     7.759000000    -0.119000000
H    -4.885000000     7.892000000    -1.064000000
H    -4.059000000     7.817000000     0.202000000
O    -8.287000000     2.855000000    -1.917000000
H    -8.487000000     3.188000000    -2.792000000
H    -7.356000000     3.043000000    -1.796000000
O    -2.842000000     5.489000000    -2.190000000
H    -2.657000000     4.614000000    -2.532000000
H    -2.732000000     5.404000000    -1.243000000
O    -1.569000000     4.400000000    -9.437000000
H    -0.868000000     4.139000000    -8.839000000
H    -2.016000000     5.115000000    -8.984000000
O    -2.524000000     4.572000000     0.574000000
H    -3.456000000     4.630000000     0.782000000
H    -2.332000000     3.634000000     0.591000000
O     2.005000000     6.889000000    -4.102000000
H     1.074000000     6.673000000    -4.164000000
H     2.362000000     6.660000000    -4.960000000
