215
-1469.96905
C    -1.207000000     2.513000000     3.869000000
H    -0.123000000     2.430000000     3.852000000
C    -1.988000000     1.404000000     3.970000000
C    -3.412000000     1.490000000     3.966000000
H    -4.069000000     0.623000000     3.980000000
C    -1.387000000     0.026000000     3.974000000
O    -0.143000000     0.167000000     4.741000000
H    -1.012000000    -0.177000000     2.960000000
O    -2.153000000    -1.009000000     4.556000000
C    -2.136000000    -2.205000000     3.842000000
C    -3.049000000    -2.306000000     2.837000000
H    -3.833000000    -1.558000000     2.752000000
C    -2.978000000    -3.357000000     1.862000000
O    -3.891000000    -3.438000000     0.810000000
C    -1.926000000    -4.225000000     1.931000000
C    -1.636000000    -5.278000000     0.834000000
H    -1.299000000    -6.188000000     1.335000000
C    -0.872000000    -4.788000000    -0.390000000
C     0.535000000    -4.792000000    -0.415000000
H     0.987000000    -5.221000000     0.476000000
H    -2.619000000    -5.642000000     0.526000000
C    -0.959000000    -4.040000000     2.947000000
H     0.050000000    -4.431000000     2.840000000
C    -1.062000000    -3.032000000     3.930000000
C     0.088000000    -2.755000000     4.931000000
H     0.547000000    -3.676000000     5.297000000
H    -0.351000000    -2.318000000     5.830000000
C     1.078000000    -1.845000000     4.206000000
C     2.263000000    -2.375000000     3.639000000
H     2.471000000    -3.442000000     3.656000000
C     0.970000000    -0.437000000     4.215000000
C     1.925000000     0.416000000     3.749000000
H     1.921000000     1.502000000     3.783000000
C     3.097000000    -0.145000000     3.248000000
O     4.022000000     0.765000000     2.680000000
C     4.121000000     0.955000000     1.289000000
C     4.410000000     2.399000000     0.927000000
C     5.038000000     2.785000000    -0.301000000
H     5.398000000     2.146000000    -1.103000000
C     3.862000000     3.432000000     1.673000000
H     3.336000000     3.124000000     2.573000000
O     5.194000000     0.055000000     0.810000000
H     3.105000000     0.667000000     0.979000000
C     3.252000000    -1.514000000     3.181000000
C     4.453000000    -2.174000000     2.577000000
H     4.536000000    -3.169000000     3.018000000
H     5.344000000    -1.592000000     2.824000000
C     4.321000000    -2.241000000     1.098000000
C     3.769000000    -3.392000000     0.486000000
H     3.448000000    -4.222000000     1.111000000
C     4.697000000    -1.123000000     0.280000000
C     4.472000000    -1.136000000    -1.107000000
H     4.726000000    -0.351000000    -1.815000000
C     3.743000000    -2.193000000    -1.618000000
O     3.248000000    -1.914000000    -2.857000000
C     1.850000000    -1.738000000    -3.081000000
C     1.599000000    -0.683000000    -4.159000000
C     2.254000000     0.575000000    -4.142000000
H     2.861000000     0.833000000    -3.279000000
C     0.660000000    -0.867000000    -5.152000000
H     0.034000000    -1.753000000    -5.090000000
O     1.210000000    -2.991000000    -3.506000000
H     1.376000000    -1.471000000    -2.124000000
C     3.386000000    -3.273000000    -0.821000000
C     2.756000000    -4.464000000    -1.544000000
H     3.056000000    -5.401000000    -1.070000000
H     3.176000000    -4.504000000    -2.551000000
C     1.226000000    -4.309000000    -1.532000000
C     0.519000000    -3.717000000    -2.600000000
C    -0.857000000    -3.538000000    -2.420000000
H    -1.369000000    -2.934000000    -3.164000000
C    -1.591000000    -4.092000000    -1.369000000
O    -2.938000000    -3.843000000    -1.299000000
C    -3.444000000    -2.822000000    -0.413000000
H    -2.570000000    -2.186000000    -0.207000000
C    -4.387000000    -1.907000000    -1.205000000
C    -5.374000000    -1.246000000    -0.430000000
H    -5.421000000    -1.541000000     0.615000000
C    -4.201000000    -1.554000000    -2.555000000
H    -3.478000000    -2.147000000    -3.109000000
C    -4.932000000    -0.458000000    -3.084000000
O    -4.836000000    -0.139000000    -4.417000000
C    -5.832000000     0.240000000    -2.254000000
H    -6.437000000     1.064000000    -2.625000000
C    -6.122000000    -0.165000000    -0.953000000
O    -6.952000000     0.655000000    -0.197000000
C    -6.931000000     0.794000000     1.148000000
C    -5.978000000     1.674000000     1.750000000
H    -5.296000000     2.278000000     1.157000000
C    -7.914000000     0.147000000     1.904000000
H    -8.583000000    -0.508000000     1.352000000
C    -7.907000000     0.257000000     3.289000000
H    -8.598000000    -0.368000000     3.850000000
C    -7.096000000     1.260000000     3.860000000
H    -7.135000000     1.384000000     4.939000000
C    -6.162000000     1.964000000     3.098000000
O    -5.404000000     2.949000000     3.693000000
C    -4.032000000     2.758000000     3.817000000
C    -3.275000000     3.893000000     3.714000000
H    -3.757000000     4.850000000     3.532000000
C    -1.873000000     3.775000000     3.694000000
O    -1.129000000     4.973000000     3.701000000
C     0.239000000     5.102000000     3.899000000
C     1.004000000     5.387000000     2.749000000
H     0.518000000     5.476000000     1.781000000
C     0.741000000     4.819000000     5.157000000
H     0.054000000     4.467000000     5.923000000
C     2.098000000     5.051000000     5.279000000
H     2.414000000     5.100000000     6.318000000
C     2.912000000     5.457000000     4.213000000
H     3.961000000     5.583000000     4.466000000
C     2.344000000     5.521000000     2.937000000
O     3.132000000     5.775000000     1.831000000
C     3.913000000     4.818000000     1.263000000
C     4.627000000     5.128000000     0.067000000
H     4.818000000     6.158000000    -0.221000000
C     5.175000000     4.094000000    -0.692000000
O     5.855000000     4.378000000    -1.860000000
C     5.523000000     3.907000000    -3.113000000
C     4.221000000     3.718000000    -3.548000000
H     3.373000000     3.905000000    -2.895000000
C     6.526000000     3.391000000    -3.930000000
H     7.525000000     3.401000000    -3.501000000
C     6.297000000     2.693000000    -5.113000000
H     7.112000000     2.265000000    -5.691000000
C     5.013000000     2.477000000    -5.546000000
H     4.852000000     1.765000000    -6.351000000
C     3.974000000     3.013000000    -4.744000000
O     2.644000000     2.734000000    -5.002000000
C     2.019000000     1.500000000    -5.071000000
C     1.028000000     1.269000000    -6.049000000
H     0.975000000     2.038000000    -6.815000000
C     0.209000000     0.178000000    -5.991000000
O    -0.751000000    -0.021000000    -6.960000000
C    -1.915000000    -0.653000000    -6.605000000
C    -2.198000000    -1.857000000    -7.062000000
H    -1.564000000    -2.217000000    -7.869000000
C    -3.286000000    -2.608000000    -6.656000000
H    -3.359000000    -3.628000000    -7.024000000
C    -4.171000000    -2.037000000    -5.770000000
H    -4.985000000    -2.712000000    -5.517000000
C    -3.930000000    -0.748000000    -5.274000000
C    -2.836000000    -0.023000000    -5.704000000
H    -2.622000000     0.976000000    -5.334000000
C     0.530000000     1.953000000    -1.051000000
H     1.010000000     2.646000000    -1.737000000
C     1.211000000     0.786000000    -0.651000000
H     2.251000000     0.767000000    -0.966000000
C     0.632000000    -0.060000000     0.194000000
H     1.306000000    -0.836000000     0.563000000
C    -0.781000000     0.007000000     0.472000000
H    -1.259000000    -0.766000000     1.068000000
C    -1.484000000     1.111000000     0.017000000
H    -2.534000000     1.157000000     0.292000000
C    -0.808000000     2.124000000    -0.763000000
C    -1.523000000     3.287000000    -1.422000000
O    -2.759000000     3.325000000    -1.368000000
O    -0.948000000     4.038000000    -2.172000000
O    -5.242000000     4.728000000    -0.452000000
H    -5.912000000     5.033000000    -1.064000000
H    -4.717000000     4.110000000    -0.960000000
O    -0.040000000     4.037000000    -4.842000000
H     0.428000000     3.220000000    -5.016000000
H    -0.111000000     4.074000000    -3.889000000
O    -1.082000000     7.587000000    -0.031000000
H    -0.455000000     7.966000000     0.585000000
H    -1.466000000     6.848000000     0.443000000
O    -4.887000000     6.032000000    -4.012000000
H    -4.908000000     5.078000000    -4.086000000
H    -4.139000000     6.212000000    -3.443000000
O     1.580000000     9.149000000    -1.295000000
H     0.717000000     8.838000000    -1.571000000
H     2.197000000     8.644000000    -1.825000000
O    -3.926000000     3.122000000    -3.813000000
H    -3.392000000     3.382000000    -3.062000000
H    -4.342000000     2.304000000    -3.540000000
O     1.439000000     8.143000000     1.236000000
H     1.435000000     8.613000000     0.402000000
H     2.062000000     7.428000000     1.105000000
O     0.408000000     4.190000000    -8.120000000
H     0.452000000     4.445000000    -7.199000000
H     1.002000000     4.795000000    -8.564000000
O    -4.583000000     8.856000000    -0.623000000
H    -4.216000000     8.918000000    -1.505000000
H    -4.181000000     8.071000000    -0.251000000
O     0.321000000     6.275000000    -1.911000000
H    -0.246000000     6.761000000    -1.313000000
H    -0.121000000     5.434000000    -2.031000000
O    -0.426000000     9.189000000    -3.557000000
H    -0.075000000     8.425000000    -4.014000000
H    -0.309000000     9.912000000    -4.173000000
O    -2.514000000     4.535000000    -6.224000000
H    -3.249000000     3.934000000    -6.102000000
H    -1.866000000     4.256000000    -5.576000000
O    -4.561000000     7.689000000     2.167000000
H    -5.124000000     6.917000000     2.119000000
H    -4.859000000     8.248000000     1.449000000
O    -3.092000000     8.878000000    -2.938000000
H    -2.228000000     9.012000000    -3.328000000
H    -3.097000000     7.957000000    -2.677000000
O    -5.965000000     5.228000000     2.190000000
H    -6.917000000     5.124000000     2.184000000
H    -5.688000000     4.942000000     1.319000000
O    -0.140000000     6.921000000    -5.090000000
H    -0.703000000     7.047000000    -5.853000000
H    -0.285000000     6.011000000    -4.832000000
O    -2.803000000     6.232000000    -1.909000000
H    -2.038000000     5.669000000    -2.031000000
H    -2.850000000     6.370000000    -0.963000000
O    -2.363000000     5.297000000     0.967000000
H    -2.651000000     5.174000000     1.872000000
H    -2.873000000     4.661000000     0.465000000
O     2.811000000     6.839000000    -3.098000000
H     1.988000000     6.545000000    -2.708000000
H     2.637000000     6.859000000    -4.039000000
