215
-1443.39483
C    -1.541000000     1.808000000     5.290000000
H    -0.505000000     1.834000000     5.619000000
C    -2.098000000     0.631000000     4.898000000
C    -3.418000000     0.681000000     4.479000000
H    -3.807000000    -0.263000000     4.104000000
C    -1.215000000    -0.527000000     4.453000000
O     0.054000000    -0.617000000     5.232000000
H    -1.069000000    -0.472000000     3.364000000
O    -2.028000000    -1.828000000     4.577000000
C    -1.811000000    -2.858000000     3.687000000
C    -2.799000000    -3.045000000     2.704000000
H    -3.711000000    -2.460000000     2.796000000
C    -2.524000000    -3.844000000     1.591000000
O    -3.360000000    -3.716000000     0.505000000
C    -1.350000000    -4.589000000     1.488000000
C    -1.008000000    -5.592000000     0.386000000
H    -0.316000000    -6.341000000     0.777000000
C    -0.218000000    -4.901000000    -0.790000000
C     1.178000000    -4.824000000    -0.876000000
H     1.847000000    -5.177000000    -0.095000000
H    -1.830000000    -6.221000000     0.038000000
C    -0.382000000    -4.437000000     2.527000000
H     0.533000000    -5.024000000     2.506000000
C    -0.572000000    -3.538000000     3.563000000
C     0.630000000    -3.335000000     4.503000000
H     1.306000000    -4.192000000     4.552000000
H     0.285000000    -3.284000000     5.537000000
C     1.534000000    -2.118000000     4.190000000
C     2.690000000    -2.304000000     3.457000000
H     3.034000000    -3.318000000     3.272000000
C     1.169000000    -0.840000000     4.549000000
C     1.935000000     0.281000000     4.175000000
H     1.706000000     1.261000000     4.586000000
C     3.062000000     0.113000000     3.351000000
O     3.686000000     1.205000000     2.817000000
C     3.579000000     1.423000000     1.412000000
C     3.471000000     2.916000000     1.117000000
C     3.818000000     3.449000000    -0.107000000
H     4.429000000     2.848000000    -0.776000000
C     2.766000000     3.715000000     2.030000000
H     2.268000000     3.259000000     2.883000000
O     4.630000000     0.865000000     0.701000000
H     2.582000000     1.041000000     1.146000000
C     3.395000000    -1.213000000     3.072000000
C     4.703000000    -1.540000000     2.308000000
H     5.080000000    -2.547000000     2.496000000
H     5.467000000    -0.796000000     2.540000000
C     4.368000000    -1.518000000     0.730000000
C     4.075000000    -2.712000000     0.068000000
H     4.023000000    -3.669000000     0.582000000
C     4.360000000    -0.319000000     0.082000000
C     4.037000000    -0.266000000    -1.250000000
H     3.866000000     0.644000000    -1.820000000
C     3.642000000    -1.459000000    -1.906000000
O     3.384000000    -1.335000000    -3.216000000
C     1.985000000    -1.240000000    -3.578000000
C     1.753000000    -0.307000000    -4.698000000
C     2.676000000     0.716000000    -4.983000000
H     3.686000000     0.761000000    -4.584000000
C     0.505000000    -0.303000000    -5.302000000
H    -0.178000000    -1.109000000    -5.045000000
O     1.488000000    -2.585000000    -3.899000000
H     1.401000000    -0.818000000    -2.747000000
C     3.678000000    -2.707000000    -1.224000000
C     3.232000000    -3.960000000    -1.995000000
H     3.690000000    -4.869000000    -1.598000000
H     3.486000000    -3.912000000    -3.056000000
C     1.765000000    -4.048000000    -1.906000000
C     0.975000000    -3.355000000    -2.804000000
C    -0.387000000    -3.449000000    -2.711000000
H    -1.002000000    -2.955000000    -3.458000000
C    -0.988000000    -4.154000000    -1.713000000
O    -2.361000000    -4.171000000    -1.598000000
C    -2.766000000    -3.139000000    -0.699000000
H    -1.891000000    -2.522000000    -0.447000000
C    -3.712000000    -2.094000000    -1.358000000
C    -4.446000000    -1.215000000    -0.571000000
H    -4.565000000    -1.174000000     0.509000000
C    -3.747000000    -1.993000000    -2.791000000
H    -3.168000000    -2.708000000    -3.370000000
C    -4.665000000    -1.127000000    -3.376000000
O    -4.944000000    -1.269000000    -4.694000000
C    -5.421000000    -0.260000000    -2.575000000
H    -6.234000000     0.269000000    -3.066000000
C    -5.304000000    -0.308000000    -1.205000000
O    -6.077000000     0.589000000    -0.437000000
C    -6.432000000     0.499000000     0.897000000
C    -5.797000000     1.272000000     1.844000000
H    -5.090000000     2.038000000     1.537000000
C    -7.362000000    -0.459000000     1.241000000
H    -7.776000000    -1.106000000     0.471000000
C    -7.761000000    -0.576000000     2.556000000
H    -8.595000000    -1.234000000     2.787000000
C    -7.191000000     0.251000000     3.542000000
H    -7.397000000     0.131000000     4.603000000
C    -6.119000000     1.099000000     3.161000000
O    -5.511000000     1.917000000     4.058000000
C    -4.191000000     1.868000000     4.463000000
C    -3.559000000     3.057000000     4.876000000
H    -4.101000000     3.999000000     4.888000000
C    -2.257000000     3.013000000     5.307000000
O    -1.666000000     4.286000000     5.484000000
C    -0.330000000     4.513000000     5.327000000
C    -0.019000000     4.952000000     4.022000000
H    -0.785000000     4.913000000     3.252000000
C     0.631000000     4.552000000     6.335000000
H     0.287000000     4.220000000     7.311000000
C     1.906000000     5.064000000     6.021000000
H     2.724000000     5.170000000     6.729000000
C     2.233000000     5.448000000     4.708000000
H     3.225000000     5.858000000     4.532000000
C     1.214000000     5.413000000     3.735000000
O     1.536000000     5.794000000     2.454000000
C     2.421000000     5.016000000     1.683000000
C     2.842000000     5.556000000     0.439000000
H     2.513000000     6.547000000     0.135000000
C     3.432000000     4.730000000    -0.509000000
O     3.655000000     5.224000000    -1.750000000
C     4.222000000     4.585000000    -2.819000000
C     3.420000000     4.099000000    -3.839000000
H     2.334000000     4.140000000    -3.819000000
C     5.575000000     4.400000000    -2.859000000
H     6.210000000     4.717000000    -2.035000000
C     6.216000000     3.821000000    -3.923000000
H     7.269000000     3.576000000    -3.817000000
C     5.410000000     3.293000000    -4.991000000
H     5.848000000     2.608000000    -5.713000000
C     3.988000000     3.350000000    -4.885000000
O     3.167000000     2.892000000    -5.894000000
C     2.312000000     1.823000000    -5.789000000
C     1.092000000     1.783000000    -6.375000000
H     0.827000000     2.676000000    -6.936000000
C     0.187000000     0.720000000    -6.154000000
O    -1.037000000     0.796000000    -6.713000000
C    -1.973000000    -0.228000000    -6.608000000
C    -1.827000000    -1.210000000    -7.579000000
H    -1.029000000    -1.108000000    -8.311000000
C    -2.925000000    -2.153000000    -7.679000000
H    -2.829000000    -2.801000000    -8.547000000
C    -3.912000000    -2.227000000    -6.712000000
H    -4.533000000    -3.119000000    -6.680000000
C    -3.945000000    -1.281000000    -5.645000000
C    -3.057000000    -0.232000000    -5.717000000
H    -3.122000000     0.584000000    -5.003000000
C    -0.305000000     2.593000000    -3.282000000
H     0.034000000     3.341000000    -3.994000000
C     0.631000000     1.981000000    -2.452000000
H     1.665000000     2.299000000    -2.553000000
C     0.249000000     1.082000000    -1.469000000
H     1.128000000     0.559000000    -0.971000000
C    -1.085000000     0.755000000    -1.334000000
H    -1.364000000    -0.044000000    -0.651000000
C    -2.060000000     1.424000000    -2.099000000
H    -3.114000000     1.323000000    -1.854000000
C    -1.640000000     2.356000000    -3.048000000
C    -2.759000000     2.990000000    -3.892000000
O    -3.927000000     2.871000000    -3.727000000
O    -2.437000000     3.660000000    -4.853000000
O    -4.764000000     3.814000000    -1.257000000
H    -4.932000000     4.713000000    -1.539000000
H    -4.469000000     3.366000000    -2.050000000
O    -0.465000000     5.817000000    -5.457000000
H    -0.245000000     5.707000000    -6.382000000
H    -1.058000000     5.091000000    -5.264000000
O     0.311000000     1.191000000    -9.344000000
H     1.100000000     1.489000000    -8.892000000
H    -0.346000000     1.111000000    -8.653000000
O    -8.397000000     4.549000000    -4.998000000
H    -7.669000000     3.952000000    -5.169000000
H    -9.076000000     4.284000000    -5.618000000
O    -6.017000000     2.992000000    -5.290000000
H    -5.255000000     2.902000000    -4.718000000
H    -5.737000000     3.609000000    -5.966000000
O    -7.216000000     0.679000000    -5.706000000
H    -6.827000000     1.553000000    -5.663000000
H    -6.487000000     0.104000000    -5.939000000
O    -3.655000000     3.952000000   -10.217000000
H    -2.995000000     3.331000000   -10.524000000
H    -3.409000000     4.134000000    -9.310000000
O    -1.987000000     6.728000000    -2.686000000
H    -2.473000000     6.431000000    -3.455000000
H    -1.406000000     7.412000000    -3.018000000
O    -2.757000000     4.163000000    -7.627000000
H    -2.569000000     3.827000000    -6.750000000
H    -1.895000000     4.315000000    -8.015000000
O    -5.212000000     4.874000000    -6.873000000
H    -5.549000000     5.188000000    -7.712000000
H    -4.397000000     4.424000000    -7.095000000
O    -1.596000000     6.525000000     0.490000000
H    -1.905000000     6.075000000     1.277000000
H    -1.786000000     5.916000000    -0.224000000
O    -1.439000000     8.336000000    -6.204000000
H    -2.144000000     8.389000000    -6.850000000
H    -1.198000000     7.410000000    -6.188000000
O    -5.526000000     6.668000000    -2.514000000
H    -5.055000000     6.360000000    -3.288000000
H    -4.944000000     7.320000000    -2.122000000
O    -7.576000000     2.897000000    -1.812000000
H    -6.823000000     2.724000000    -1.248000000
H    -7.401000000     2.393000000    -2.607000000
O    -3.999000000     5.873000000    -4.565000000
H    -3.422000000     5.120000000    -4.439000000
H    -4.333000000     5.773000000    -5.456000000
O    -0.018000000     5.452000000    -7.966000000
H    -0.392000000     6.012000000    -8.646000000
H     0.845000000     5.211000000    -8.301000000
O     2.026000000     7.001000000    -5.674000000
H     2.251000000     6.278000000    -6.259000000
H     1.123000000     6.823000000    -5.409000000
O    -2.832000000     3.311000000     0.539000000
H    -2.547000000     2.400000000     0.471000000
H    -3.376000000     3.450000000    -0.236000000
O     0.765000000     7.538000000    -1.569000000
H    -0.031000000     7.106000000    -1.258000000
H     0.521000000     7.904000000    -2.420000000
