215
-1455.99941
C    -1.260000000     2.427000000     4.236000000
H    -0.258000000     2.511000000     4.650000000
C    -1.840000000     1.193000000     4.076000000
C    -3.124000000     1.145000000     3.544000000
H    -3.596000000     0.178000000     3.391000000
C    -1.018000000    -0.085000000     4.249000000
O     0.240000000     0.126000000     4.981000000
H    -0.821000000    -0.180000000     3.171000000
O    -1.796000000    -1.238000000     4.702000000
C    -1.578000000    -2.396000000     4.003000000
C    -2.588000000    -2.756000000     3.095000000
H    -3.485000000    -2.150000000     3.008000000
C    -2.317000000    -3.781000000     2.173000000
O    -3.273000000    -4.010000000     1.153000000
C    -1.088000000    -4.401000000     2.081000000
C    -0.758000000    -5.411000000     1.050000000
H    -0.136000000    -6.138000000     1.576000000
C    -0.157000000    -4.931000000    -0.277000000
C     1.216000000    -4.923000000    -0.555000000
H     1.935000000    -5.347000000     0.141000000
H    -1.676000000    -5.945000000     0.795000000
C    -0.115000000    -3.985000000     3.011000000
H     0.827000000    -4.525000000     3.070000000
C    -0.329000000    -3.037000000     4.031000000
C     0.848000000    -2.634000000     4.890000000
H     1.506000000    -3.422000000     5.261000000
H     0.438000000    -2.175000000     5.793000000
C     1.705000000    -1.619000000     4.183000000
C     2.781000000    -1.984000000     3.354000000
H     2.967000000    -3.021000000     3.084000000
C     1.393000000    -0.241000000     4.369000000
C     2.157000000     0.789000000     3.833000000
H     1.921000000     1.839000000     3.981000000
C     3.288000000     0.424000000     2.990000000
O     4.022000000     1.405000000     2.350000000
C     3.964000000     1.460000000     0.853000000
C     3.968000000     2.905000000     0.388000000
C     4.740000000     3.398000000    -0.634000000
H     5.365000000     2.678000000    -1.157000000
C     3.064000000     3.738000000     0.994000000
H     2.309000000     3.275000000     1.624000000
O     5.004000000     0.722000000     0.203000000
H     2.994000000     1.075000000     0.504000000
C     3.623000000    -0.970000000     2.788000000
C     4.898000000    -1.465000000     2.105000000
H     5.230000000    -2.390000000     2.582000000
H     5.706000000    -0.748000000     2.266000000
C     4.670000000    -1.647000000     0.586000000
C     4.164000000    -2.866000000     0.100000000
H     4.065000000    -3.731000000     0.750000000
C     4.856000000    -0.553000000    -0.269000000
C     4.613000000    -0.695000000    -1.611000000
H     4.804000000     0.098000000    -2.330000000
C     4.027000000    -1.867000000    -2.103000000
O     3.344000000    -1.776000000    -3.272000000
C     1.890000000    -1.680000000    -3.155000000
C     1.274000000    -0.425000000    -3.745000000
C     2.071000000     0.713000000    -4.185000000
H     3.153000000     0.698000000    -4.076000000
C    -0.097000000    -0.359000000    -3.947000000
H    -0.745000000    -1.211000000    -3.757000000
O     1.279000000    -2.915000000    -3.650000000
H     1.645000000    -1.583000000    -2.087000000
C     3.783000000    -2.942000000    -1.212000000
C     3.239000000    -4.231000000    -1.828000000
H     3.661000000    -5.152000000    -1.420000000
H     3.466000000    -4.244000000    -2.896000000
C     1.697000000    -4.306000000    -1.673000000
C     0.807000000    -3.680000000    -2.600000000
C    -0.564000000    -3.680000000    -2.316000000
H    -1.271000000    -3.219000000    -3.001000000
C    -1.047000000    -4.473000000    -1.243000000
O    -2.383000000    -4.449000000    -0.937000000
C    -2.948000000    -3.397000000    -0.141000000
H    -2.130000000    -2.671000000    -0.028000000
C    -4.189000000    -2.821000000    -0.756000000
C    -5.204000000    -2.301000000     0.099000000
H    -5.179000000    -2.461000000     1.174000000
C    -4.327000000    -2.734000000    -2.121000000
H    -3.568000000    -3.136000000    -2.787000000
C    -5.514000000    -2.281000000    -2.670000000
O    -5.602000000    -2.389000000    -4.097000000
C    -6.492000000    -1.664000000    -1.826000000
H    -7.341000000    -1.208000000    -2.328000000
C    -6.391000000    -1.839000000    -0.474000000
O    -7.335000000    -1.393000000     0.394000000
C    -7.099000000    -0.669000000     1.497000000
C    -6.251000000     0.445000000     1.471000000
H    -5.831000000     0.841000000     0.550000000
C    -7.664000000    -1.114000000     2.677000000
H    -8.189000000    -2.066000000     2.684000000
C    -7.411000000    -0.370000000     3.844000000
H    -7.909000000    -0.688000000     4.756000000
C    -6.531000000     0.691000000     3.917000000
H    -6.382000000     1.212000000     4.860000000
C    -5.938000000     1.095000000     2.703000000
O    -5.112000000     2.234000000     2.701000000
C    -3.845000000     2.295000000     3.238000000
C    -3.243000000     3.503000000     3.490000000
H    -3.835000000     4.382000000     3.248000000
C    -1.957000000     3.603000000     3.902000000
O    -1.491000000     4.858000000     4.097000000
C    -0.152000000     5.168000000     3.874000000
C     0.257000000     5.336000000     2.551000000
H    -0.285000000     4.949000000     1.692000000
C     0.713000000     5.350000000     4.958000000
H     0.413000000     5.147000000     5.983000000
C     1.991000000     5.853000000     4.665000000
H     2.738000000     6.086000000     5.420000000
C     2.420000000     6.006000000     3.343000000
H     3.472000000     6.251000000     3.221000000
C     1.525000000     5.838000000     2.261000000
O     1.998000000     5.986000000     0.979000000
C     2.945000000     5.035000000     0.480000000
C     3.809000000     5.552000000    -0.580000000
H     3.654000000     6.510000000    -1.070000000
C     4.663000000     4.689000000    -1.144000000
O     5.445000000     5.040000000    -2.216000000
C     5.100000000     4.534000000    -3.424000000
C     3.812000000     3.999000000    -3.689000000
H     3.071000000     4.150000000    -2.907000000
C     5.977000000     4.510000000    -4.483000000
H     6.970000000     4.932000000    -4.346000000
C     5.775000000     3.716000000    -5.577000000
H     6.528000000     3.613000000    -6.354000000
C     4.486000000     3.263000000    -5.885000000
H     4.245000000     2.785000000    -6.831000000
C     3.518000000     3.309000000    -4.910000000
O     2.219000000     2.985000000    -5.233000000
C     1.462000000     1.946000000    -4.689000000
C     0.057000000     1.990000000    -4.613000000
H    -0.442000000     2.848000000    -5.057000000
C    -0.692000000     0.827000000    -4.280000000
O    -2.009000000     0.808000000    -4.472000000
C    -2.743000000    -0.293000000    -5.065000000
C    -2.332000000    -0.894000000    -6.253000000
H    -1.467000000    -0.588000000    -6.837000000
C    -3.131000000    -1.900000000    -6.750000000
H    -2.728000000    -2.327000000    -7.665000000
C    -4.186000000    -2.419000000    -6.031000000
H    -4.796000000    -3.218000000    -6.445000000
C    -4.538000000    -1.820000000    -4.816000000
C    -3.920000000    -0.670000000    -4.406000000
H    -4.278000000    -0.050000000    -3.588000000
C     0.090000000     1.202000000    -0.821000000
H     0.890000000     1.595000000    -1.442000000
C     0.224000000    -0.046000000    -0.158000000
H     1.175000000    -0.571000000    -0.117000000
C    -0.815000000    -0.636000000     0.548000000
H    -0.653000000    -1.587000000     1.088000000
C    -2.071000000    -0.007000000     0.456000000
H    -2.903000000    -0.440000000     1.006000000
C    -2.242000000     1.249000000    -0.202000000
H    -3.252000000     1.647000000    -0.146000000
C    -1.174000000     1.919000000    -0.721000000
C    -1.338000000     3.298000000    -1.331000000
O    -2.458000000     3.706000000    -1.712000000
O    -0.337000000     3.926000000    -1.581000000
O    -4.853000000     3.853000000    -0.451000000
H    -4.020000000     3.682000000    -0.892000000
H    -5.005000000     4.789000000    -0.581000000
O    -0.586000000     5.520000000    -7.829000000
H    -0.427000000     6.459000000    -7.923000000
H     0.197000000     5.187000000    -7.390000000
O     0.259000000     8.408000000    -3.556000000
H     0.756000000     7.618000000    -3.344000000
H    -0.598000000     8.085000000    -3.835000000
O    -2.790000000     6.330000000    -1.463000000
H    -2.615000000     5.392000000    -1.541000000
H    -1.924000000     6.736000000    -1.457000000
O    -5.424000000     6.516000000    -6.015000000
H    -5.036000000     5.643000000    -5.963000000
H    -6.219000000     6.394000000    -6.535000000
O    -7.083000000     4.078000000    -3.524000000
H    -6.165000000     4.220000000    -3.293000000
H    -7.571000000     4.362000000    -2.751000000
O    -4.291000000     3.781000000    -6.330000000
H    -4.023000000     3.676000000    -5.417000000
H    -4.412000000     2.887000000    -6.648000000
O    -1.535000000     8.295000000     2.210000000
H    -2.210000000     8.898000000     1.898000000
H    -1.867000000     7.426000000     1.985000000
O    -3.667000000     3.008000000    -3.992000000
H    -3.114000000     2.263000000    -4.226000000
H    -3.273000000     3.356000000    -3.191000000
O    -2.250000000     7.462000000    -4.220000000
H    -2.898000000     6.930000000    -3.758000000
H    -2.729000000     7.834000000    -4.961000000
O    -6.713000000     5.549000000     2.818000000
H    -6.226000000     6.019000000     2.142000000
H    -7.071000000     4.784000000     2.367000000
O     0.758000000     9.519000000     1.154000000
H     0.356000000     8.853000000     1.712000000
H     0.197000000     9.554000000     0.380000000
O     1.304000000     5.896000000    -4.011000000
H     0.706000000     5.337000000    -3.514000000
H     1.082000000     5.728000000    -4.927000000
O    -5.573000000     6.752000000     0.690000000
H    -5.543000000     6.933000000    -0.249000000
H    -5.563000000     7.616000000     1.101000000
O     3.549000000     7.397000000    -4.889000000
H     2.897000000     8.031000000    -5.188000000
H     3.045000000     6.607000000    -4.697000000
O    -7.324000000     3.254000000     0.580000000
H    -6.402000000     3.086000000     0.385000000
H    -7.545000000     4.019000000     0.049000000
O    -0.751000000     9.014000000    -1.081000000
H    -0.578000000     9.193000000    -2.006000000
H    -0.634000000     8.067000000    -0.995000000
O    -5.608000000     7.050000000    -2.109000000
H    -5.416000000     7.984000000    -2.197000000
H    -4.763000000     6.650000000    -1.905000000
O    -0.040000000     6.483000000    -0.901000000
H     0.521000000     6.444000000    -0.126000000
H    -0.070000000     5.581000000    -1.221000000
