215
-1429.24806
C    -1.036000000     2.122000000     4.548000000
H     0.004000000     2.107000000     4.864000000
C    -1.684000000     0.968000000     4.215000000
C    -3.015000000     1.038000000     3.827000000
H    -3.562000000     0.150000000     3.521000000
C    -0.804000000    -0.303000000     4.173000000
O     0.340000000    -0.201000000     4.978000000
H    -0.389000000    -0.411000000     3.160000000
O    -1.641000000    -1.460000000     4.489000000
C    -1.394000000    -2.610000000     3.643000000
C    -2.425000000    -2.976000000     2.831000000
H    -3.294000000    -2.324000000     2.842000000
C    -2.211000000    -3.935000000     1.829000000
O    -3.170000000    -3.898000000     0.805000000
C    -1.035000000    -4.655000000     1.787000000
C    -0.772000000    -5.624000000     0.650000000
H     0.071000000    -6.263000000     0.919000000
C    -0.242000000    -4.893000000    -0.588000000
C     1.124000000    -4.814000000    -0.671000000
H     1.823000000    -5.275000000     0.022000000
H    -1.716000000    -6.167000000     0.579000000
C    -0.065000000    -4.492000000     2.746000000
H     0.818000000    -5.125000000     2.717000000
C    -0.202000000    -3.389000000     3.687000000
C     0.960000000    -3.072000000     4.595000000
H     1.590000000    -3.960000000     4.517000000
H     0.674000000    -2.800000000     5.614000000
C     1.799000000    -1.914000000     4.152000000
C     3.012000000    -2.224000000     3.491000000
H     3.202000000    -3.215000000     3.088000000
C     1.512000000    -0.562000000     4.345000000
C     2.326000000     0.406000000     3.741000000
H     2.093000000     1.443000000     3.965000000
C     3.419000000     0.045000000     3.023000000
O     4.143000000     1.077000000     2.396000000
C     3.893000000     1.254000000     0.967000000
C     3.657000000     2.725000000     0.542000000
C     4.016000000     3.161000000    -0.746000000
H     4.604000000     2.495000000    -1.372000000
C     2.855000000     3.608000000     1.371000000
H     2.485000000     3.250000000     2.328000000
O     5.087000000     0.739000000     0.299000000
H     2.971000000     0.690000000     0.767000000
C     3.819000000    -1.274000000     2.879000000
C     5.089000000    -1.650000000     2.064000000
H     5.409000000    -2.641000000     2.392000000
H     5.989000000    -1.051000000     2.211000000
C     4.749000000    -1.687000000     0.606000000
C     4.310000000    -2.868000000     0.003000000
H     4.381000000    -3.768000000     0.609000000
C     4.788000000    -0.507000000    -0.203000000
C     4.368000000    -0.566000000    -1.522000000
H     4.461000000     0.355000000    -2.093000000
C     3.803000000    -1.686000000    -2.056000000
O     3.372000000    -1.631000000    -3.356000000
C     1.979000000    -1.573000000    -3.398000000
C     1.398000000    -0.437000000    -4.245000000
C     2.240000000     0.492000000    -4.818000000
H     3.310000000     0.477000000    -4.625000000
C     0.033000000    -0.306000000    -4.342000000
H    -0.597000000    -1.090000000    -3.930000000
O     1.362000000    -2.903000000    -3.795000000
H     1.646000000    -1.371000000    -2.369000000
C     3.813000000    -2.907000000    -1.309000000
C     3.228000000    -4.198000000    -1.872000000
H     3.601000000    -5.109000000    -1.399000000
H     3.616000000    -4.320000000    -2.886000000
C     1.689000000    -4.138000000    -1.746000000
C     0.899000000    -3.619000000    -2.760000000
C    -0.462000000    -3.662000000    -2.656000000
H    -1.110000000    -3.202000000    -3.397000000
C    -1.035000000    -4.275000000    -1.549000000
O    -2.388000000    -4.076000000    -1.351000000
C    -2.885000000    -3.149000000    -0.331000000
H    -2.098000000    -2.439000000    -0.035000000
C    -4.195000000    -2.450000000    -0.792000000
C    -5.141000000    -1.826000000     0.086000000
H    -4.979000000    -1.923000000     1.156000000
C    -4.473000000    -2.336000000    -2.175000000
H    -3.632000000    -2.645000000    -2.790000000
C    -5.578000000    -1.695000000    -2.671000000
O    -5.726000000    -1.545000000    -4.010000000
C    -6.530000000    -1.213000000    -1.828000000
H    -7.385000000    -0.745000000    -2.310000000
C    -6.299000000    -1.272000000    -0.456000000
O    -7.198000000    -0.512000000     0.271000000
C    -7.029000000    -0.023000000     1.479000000
C    -6.116000000     1.004000000     1.802000000
H    -5.532000000     1.361000000     0.957000000
C    -7.865000000    -0.519000000     2.510000000
H    -8.691000000    -1.206000000     2.350000000
C    -7.743000000     0.060000000     3.807000000
H    -8.493000000    -0.026000000     4.589000000
C    -6.665000000     0.920000000     4.130000000
H    -6.588000000     1.308000000     5.142000000
C    -5.881000000     1.435000000     3.092000000
O    -4.940000000     2.448000000     3.289000000
C    -3.666000000     2.315000000     3.747000000
C    -3.020000000     3.416000000     4.251000000
H    -3.529000000     4.376000000     4.219000000
C    -1.705000000     3.309000000     4.668000000
O    -1.007000000     4.367000000     5.200000000
C     0.193000000     4.872000000     4.795000000
C     0.360000000     5.183000000     3.448000000
H    -0.396000000     4.848000000     2.743000000
C     1.103000000     5.214000000     5.736000000
H     0.947000000     5.084000000     6.804000000
C     2.328000000     5.639000000     5.355000000
H     3.141000000     5.849000000     6.045000000
C     2.541000000     5.787000000     4.008000000
H     3.498000000     6.210000000     3.715000000
C     1.562000000     5.667000000     3.089000000
O     1.935000000     5.823000000     1.715000000
C     2.559000000     4.908000000     0.934000000
C     3.035000000     5.282000000    -0.274000000
H     2.802000000     6.309000000    -0.542000000
C     3.714000000     4.418000000    -1.157000000
O     4.212000000     4.993000000    -2.336000000
C     4.473000000     4.230000000    -3.428000000
C     3.395000000     3.479000000    -3.993000000
H     2.434000000     3.352000000    -3.501000000
C     5.707000000     4.264000000    -4.076000000
H     6.562000000     4.729000000    -3.594000000
C     5.902000000     3.587000000    -5.273000000
H     6.843000000     3.538000000    -5.816000000
C     4.753000000     3.039000000    -5.879000000
H     4.886000000     2.799000000    -6.931000000
C     3.512000000     2.981000000    -5.245000000
O     2.495000000     2.589000000    -5.965000000
C     1.679000000     1.540000000    -5.596000000
C     0.343000000     1.695000000    -5.736000000
H    -0.137000000     2.460000000    -6.340000000
C    -0.482000000     0.793000000    -5.034000000
O    -1.789000000     1.073000000    -4.933000000
C    -2.808000000     0.218000000    -5.395000000
C    -2.724000000    -0.366000000    -6.660000000
H    -1.945000000    -0.108000000    -7.373000000
C    -3.628000000    -1.397000000    -7.041000000
H    -3.446000000    -1.920000000    -7.977000000
C    -4.666000000    -1.720000000    -6.112000000
H    -5.366000000    -2.539000000    -6.261000000
C    -4.748000000    -1.122000000    -4.866000000
C    -3.866000000    -0.079000000    -4.575000000
H    -3.927000000     0.420000000    -3.611000000
C    -0.364000000     2.115000000    -0.435000000
H     0.229000000     2.993000000    -0.677000000
C     0.239000000     0.877000000    -0.217000000
H     1.315000000     0.784000000    -0.335000000
C    -0.504000000    -0.133000000     0.400000000
H    -0.076000000    -1.107000000     0.576000000
C    -1.836000000     0.075000000     0.718000000
H    -2.317000000    -0.712000000     1.293000000
C    -2.483000000     1.234000000     0.291000000
H    -3.568000000     1.305000000     0.299000000
C    -1.774000000     2.301000000    -0.269000000
C    -2.482000000     3.562000000    -0.726000000
O    -3.722000000     3.591000000    -0.698000000
O    -2.030000000     4.476000000    -1.385000000
O    -5.860000000     4.553000000     0.172000000
H    -5.824000000     5.480000000    -0.065000000
H    -5.066000000     4.177000000    -0.209000000
O    -0.976000000     9.139000000    -1.857000000
H    -0.412000000     8.567000000    -1.337000000
H    -1.525000000     8.539000000    -2.362000000
O    -8.082000000     2.225000000    -3.672000000
H    -7.209000000     2.264000000    -3.283000000
H    -7.937000000     2.381000000    -4.605000000
O    -4.336000000     6.369000000    -1.413000000
H    -3.742000000     5.623000000    -1.335000000
H    -3.851000000     7.102000000    -1.034000000
O    -5.554000000     2.613000000    -2.812000000
H    -5.223000000     3.080000000    -3.579000000
H    -5.138000000     3.048000000    -2.068000000
O    -2.354000000     4.854000000    -6.474000000
H    -2.509000000     4.685000000    -5.545000000
H    -2.532000000     4.017000000    -6.902000000
O    -2.901000000     3.959000000    -3.936000000
H    -2.758000000     3.014000000    -3.885000000
H    -2.797000000     4.267000000    -3.036000000
O     0.881000000     4.825000000    -5.130000000
H     0.362000000     5.321000000    -5.763000000
H     1.565000000     4.408000000    -5.654000000
O    -2.367000000     7.475000000    -3.786000000
H    -2.288000000     6.555000000    -4.039000000
H    -3.243000000     7.729000000    -4.078000000
O    -5.089000000     6.215000000     2.512000000
H    -5.352000000     7.047000000     2.119000000
H    -4.688000000     5.727000000     1.792000000
O     0.345000000     8.549000000     2.664000000
H    -0.309000000     9.148000000     2.306000000
H     0.622000000     8.020000000     1.916000000
O     0.483000000     5.408000000    -2.429000000
H    -0.392000000     5.089000000    -2.205000000
H     0.793000000     4.802000000    -3.101000000
O    -5.788000000     8.217000000     1.017000000
H    -5.062000000     8.801000000     0.799000000
H    -6.519000000     8.536000000     0.488000000
O    -7.602000000     2.498000000    -0.862000000
H    -6.680000000     2.485000000    -0.605000000
H    -7.584000000     2.487000000    -1.819000000
O    -8.339000000     5.633000000    -0.292000000
H    -8.826000000     5.194000000    -0.990000000
H    -7.728000000     4.969000000     0.028000000
O    -7.426000000     4.379000000     3.289000000
H    -6.720000000     4.662000000     2.707000000
H    -7.806000000     3.617000000     2.851000000
O    -3.967000000     2.719000000    -7.081000000
H    -3.265000000     2.216000000    -7.493000000
H    -4.121000000     2.277000000    -6.246000000
O    -5.285000000     6.578000000    -3.921000000
H    -5.857000000     7.315000000    -3.706000000
H    -4.884000000     6.335000000    -3.087000000
O    -0.910000000     6.805000000     0.119000000
H    -0.165000000     6.416000000    -0.339000000
H    -1.647000000     6.233000000    -0.095000000
