215
-1470.98671
C     4.739000000    -1.712000000    -2.924000000
H     4.401000000    -2.739000000    -2.805000000
C     4.675000000    -0.890000000    -1.801000000
C     5.104000000     0.462000000    -1.892000000
H     5.018000000     1.171000000    -1.072000000
C     4.171000000    -1.376000000    -0.410000000
O     4.314000000    -2.781000000    -0.282000000
H     3.118000000    -1.121000000    -0.216000000
O     4.993000000    -0.736000000     0.646000000
C     4.297000000    -0.383000000     1.779000000
C     3.810000000     0.901000000     1.954000000
H     4.079000000     1.663000000     1.227000000
C     2.947000000     1.184000000     2.967000000
O     2.514000000     2.483000000     3.154000000
C     2.528000000     0.256000000     3.952000000
C     1.593000000     0.584000000     5.152000000
H     1.670000000    -0.246000000     5.857000000
C     0.142000000     0.771000000     4.795000000
C    -0.699000000    -0.341000000     5.087000000
H    -0.386000000    -1.296000000     5.502000000
H     1.997000000     1.454000000     5.674000000
C     2.976000000    -1.049000000     3.809000000
H     2.625000000    -1.904000000     4.381000000
C     3.779000000    -1.363000000     2.703000000
C     4.055000000    -2.834000000     2.487000000
H     3.991000000    -3.290000000     3.477000000
H     5.041000000    -2.974000000     2.039000000
C     3.058000000    -3.513000000     1.610000000
C     1.859000000    -4.051000000     2.149000000
H     1.612000000    -3.938000000     3.201000000
C     3.205000000    -3.449000000     0.224000000
C     2.262000000    -4.046000000    -0.626000000
H     2.512000000    -3.953000000    -1.680000000
C     1.094000000    -4.539000000    -0.074000000
O     0.043000000    -4.768000000    -0.972000000
C    -0.920000000    -3.725000000    -1.086000000
C    -1.325000000    -3.542000000    -2.568000000
C    -2.360000000    -2.736000000    -2.817000000
H    -2.981000000    -2.316000000    -2.030000000
C    -0.420000000    -3.929000000    -3.580000000
H     0.494000000    -4.505000000    -3.457000000
O    -2.180000000    -4.109000000    -0.387000000
H    -0.513000000    -2.815000000    -0.621000000
C     0.850000000    -4.512000000     1.319000000
C    -0.471000000    -4.941000000     1.901000000
H    -0.306000000    -5.276000000     2.927000000
H    -0.734000000    -5.852000000     1.360000000
C    -1.506000000    -3.859000000     1.917000000
C    -1.661000000    -3.243000000     3.201000000
H    -1.078000000    -3.374000000     4.109000000
C    -2.311000000    -3.562000000     0.855000000
C    -3.369000000    -2.700000000     0.990000000
H    -4.026000000    -2.433000000     0.166000000
C    -3.490000000    -1.979000000     2.132000000
O    -4.434000000    -1.031000000     2.177000000
C    -3.890000000     0.300000000     2.100000000
C    -4.824000000     1.108000000     1.242000000
C    -5.508000000     0.426000000     0.241000000
H    -5.479000000    -0.660000000     0.208000000
C    -4.845000000     2.518000000     1.332000000
H    -4.223000000     2.936000000     2.119000000
O    -3.765000000     0.953000000     3.375000000
H    -2.860000000     0.294000000     1.714000000
C    -2.667000000    -2.287000000     3.242000000
C    -2.913000000    -1.561000000     4.542000000
H    -2.668000000    -2.133000000     5.440000000
H    -3.909000000    -1.173000000     4.769000000
C    -2.067000000    -0.277000000     4.655000000
C    -2.564000000     0.873000000     3.981000000
C    -1.732000000     1.931000000     3.737000000
H    -2.048000000     2.838000000     3.228000000
C    -0.397000000     1.904000000     4.104000000
O     0.375000000     2.984000000     3.883000000
C     1.191000000     2.771000000     2.707000000
H     0.814000000     1.905000000     2.142000000
C     1.073000000     3.917000000     1.714000000
C     2.041000000     4.219000000     0.740000000
H     2.918000000     3.584000000     0.647000000
C     0.025000000     4.864000000     1.849000000
H    -0.729000000     4.876000000     2.633000000
C    -0.060000000     5.991000000     1.026000000
O    -1.205000000     6.796000000     0.943000000
C     0.961000000     6.347000000     0.094000000
H     0.954000000     7.215000000    -0.560000000
C     2.030000000     5.394000000     0.001000000
O     3.070000000     5.626000000    -0.896000000
C     4.233000000     4.950000000    -1.029000000
C     4.326000000     3.957000000    -1.974000000
H     3.451000000     3.608000000    -2.517000000
C     5.289000000     5.069000000    -0.166000000
H     5.254000000     5.669000000     0.739000000
C     6.470000000     4.341000000    -0.265000000
H     7.282000000     4.491000000     0.442000000
C     6.576000000     3.523000000    -1.297000000
H     7.511000000     2.996000000    -1.472000000
C     5.492000000     3.334000000    -2.211000000
O     5.553000000     2.396000000    -3.192000000
C     5.346000000     1.024000000    -3.132000000
C     5.419000000     0.247000000    -4.272000000
H     5.690000000     0.672000000    -5.235000000
C     5.064000000    -1.123000000    -4.160000000
O     4.954000000    -1.949000000    -5.304000000
C     4.056000000    -3.003000000    -5.340000000
C     2.642000000    -2.701000000    -5.311000000
H     2.297000000    -1.673000000    -5.244000000
C     4.554000000    -4.279000000    -5.482000000
H     5.630000000    -4.398000000    -5.384000000
C     3.586000000    -5.352000000    -5.565000000
H     3.808000000    -6.416000000    -5.535000000
C     2.241000000    -5.033000000    -5.640000000
H     1.529000000    -5.835000000    -5.818000000
C     1.712000000    -3.765000000    -5.479000000
O     0.384000000    -3.596000000    -5.857000000
C    -0.613000000    -3.471000000    -4.916000000
C    -1.686000000    -2.658000000    -5.195000000
H    -1.813000000    -2.248000000    -6.194000000
C    -2.593000000    -2.339000000    -4.167000000
O    -3.631000000    -1.451000000    -4.506000000
C    -4.844000000    -1.570000000    -3.746000000
C    -5.310000000    -0.539000000    -2.987000000
H    -4.775000000     0.407000000    -3.015000000
C    -5.644000000    -2.754000000    -3.815000000
H    -5.372000000    -3.674000000    -4.326000000
C    -6.774000000    -2.850000000    -2.955000000
H    -7.483000000    -3.672000000    -3.010000000
C    -7.234000000    -1.765000000    -2.228000000
H    -8.180000000    -1.855000000    -1.700000000
C    -6.482000000    -0.585000000    -2.247000000
O    -6.990000000     0.486000000    -1.539000000
C    -6.265000000     1.195000000    -0.657000000
C    -6.309000000     2.565000000    -0.596000000
H    -6.880000000     3.143000000    -1.318000000
C    -5.588000000     3.278000000     0.379000000
O    -5.547000000     4.639000000     0.365000000
C    -4.612000000     5.382000000     1.175000000
C    -5.024000000     5.911000000     2.392000000
H    -6.005000000     5.774000000     2.839000000
C    -4.058000000     6.653000000     3.173000000
H    -4.332000000     7.125000000     4.113000000
C    -2.756000000     6.881000000     2.680000000
H    -2.136000000     7.557000000     3.263000000
C    -2.413000000     6.471000000     1.449000000
C    -3.335000000     5.692000000     0.713000000
H    -3.090000000     5.490000000    -0.326000000
C     0.907000000     0.502000000    -2.009000000
H     1.420000000     0.480000000    -2.967000000
C     0.907000000    -0.610000000    -1.222000000
H     1.447000000    -1.485000000    -1.574000000
C     0.342000000    -0.665000000     0.023000000
H     0.574000000    -1.565000000     0.544000000
C    -0.337000000     0.450000000     0.510000000
H    -0.795000000     0.344000000     1.490000000
C    -0.514000000     1.542000000    -0.403000000
H    -1.188000000     2.315000000    -0.042000000
C     0.051000000     1.586000000    -1.665000000
C    -0.186000000     2.686000000    -2.684000000
O    -0.924000000     3.610000000    -2.352000000
O     0.226000000     2.585000000    -3.804000000
O     1.292000000     7.644000000    -6.593000000
H     0.999000000     7.893000000    -5.716000000
H     1.410000000     6.695000000    -6.545000000
O    -1.674000000     7.951000000    -4.965000000
H    -2.015000000     8.768000000    -4.600000000
H    -2.325000000     7.292000000    -4.726000000
O    -5.948000000     4.193000000    -4.524000000
H    -6.353000000     3.337000000    -4.667000000
H    -5.374000000     4.064000000    -3.770000000
O     0.952000000     2.452000000    -8.197000000
H     0.326000000     1.740000000    -8.065000000
H     1.294000000     2.636000000    -7.322000000
O    -1.679000000     8.730000000    -1.425000000
H    -1.591000000     7.883000000    -1.862000000
H    -1.888000000     8.511000000    -0.517000000
O     3.410000000     4.943000000    -4.969000000
H     2.859000000     5.690000000    -4.735000000
H     4.249000000     5.122000000    -4.545000000
O    -1.782000000     3.525000000    -5.385000000
H    -0.983000000     3.790000000    -5.841000000
H    -1.504000000     3.378000000    -4.481000000
O     0.159000000    -0.410000000    -7.469000000
H    -0.136000000    -0.822000000    -8.281000000
H    -0.105000000    -1.022000000    -6.781000000
O    -0.584000000     0.158000000    -4.654000000
H    -0.311000000     1.036000000    -4.388000000
H    -0.755000000    -0.300000000    -3.831000000
O    -2.438000000     1.228000000    -6.751000000
H    -2.048000000     0.457000000    -6.340000000
H    -2.397000000     1.906000000    -6.076000000
O    -1.672000000     6.186000000    -2.256000000
H    -1.322000000     5.297000000    -2.206000000
H    -1.978000000     6.272000000    -3.159000000
O    -3.410000000     5.739000000    -4.811000000
H    -4.364000000     5.731000000    -4.885000000
H    -3.139000000     4.870000000    -5.108000000
O     1.844000000     2.787000000    -5.653000000
H     2.493000000     3.467000000    -5.474000000
H     1.274000000     2.790000000    -4.884000000
O     0.529000000     5.673000000    -4.540000000
H     0.161000000     5.417000000    -5.385000000
H     0.301000000     4.953000000    -3.951000000
O    -0.111000000     4.861000000    -7.312000000
H    -0.261000000     5.356000000    -8.118000000
H    -0.102000000     3.946000000    -7.591000000
O     2.654000000     0.273000000    -6.611000000
H     1.753000000     0.117000000    -6.895000000
H     2.586000000     0.991000000    -5.981000000
O    -3.838000000     3.528000000    -2.942000000
H    -3.123000000     3.144000000    -2.436000000
H    -3.608000000     4.453000000    -3.019000000
O     3.083000000     5.314000000    -7.989000000
H     2.405000000     4.751000000    -7.615000000
H     3.561000000     5.648000000    -7.230000000
O     1.091000000     8.280000000    -3.996000000
H     0.501000000     7.668000000    -3.556000000
H     1.873000000     8.297000000    -3.444000000
