215
-1443.79400
C    -0.668000000     2.178000000     3.399000000
H     0.349000000     2.233000000     3.020000000
C    -1.238000000     1.058000000     3.961000000
C    -2.601000000     1.118000000     4.441000000
H    -3.098000000     0.267000000     4.899000000
C    -0.481000000    -0.239000000     3.934000000
O     0.784000000    -0.280000000     4.648000000
H    -0.310000000    -0.419000000     2.862000000
O    -1.322000000    -1.352000000     4.387000000
C    -1.251000000    -2.541000000     3.592000000
C    -2.380000000    -2.829000000     2.851000000
H    -3.244000000    -2.170000000     2.866000000
C    -2.317000000    -3.796000000     1.839000000
O    -3.408000000    -3.886000000     0.949000000
C    -1.103000000    -4.576000000     1.696000000
C    -0.953000000    -5.578000000     0.556000000
H    -0.259000000    -6.311000000     0.974000000
C    -0.594000000    -4.978000000    -0.739000000
C     0.794000000    -5.009000000    -1.137000000
H     1.502000000    -5.532000000    -0.499000000
H    -1.803000000    -6.230000000     0.345000000
C    -0.065000000    -4.339000000     2.567000000
H     0.838000000    -4.931000000     2.440000000
C    -0.115000000    -3.345000000     3.492000000
C     1.101000000    -3.114000000     4.341000000
H     1.526000000    -4.103000000     4.531000000
H     0.712000000    -2.801000000     5.312000000
C     2.126000000    -2.145000000     3.823000000
C     3.216000000    -2.579000000     3.105000000
H     3.396000000    -3.623000000     2.865000000
C     1.903000000    -0.757000000     4.044000000
C     2.786000000     0.169000000     3.545000000
H     2.538000000     1.208000000     3.746000000
C     3.859000000    -0.274000000     2.817000000
O     4.671000000     0.664000000     2.241000000
C     4.398000000     1.138000000     0.878000000
C     4.496000000     2.652000000     0.761000000
C     4.429000000     3.163000000    -0.563000000
H     4.502000000     2.466000000    -1.394000000
C     4.351000000     3.457000000     1.862000000
H     4.352000000     3.078000000     2.881000000
O     5.203000000     0.342000000    -0.035000000
H     3.320000000     0.982000000     0.722000000
C     4.010000000    -1.627000000     2.513000000
C     5.142000000    -2.036000000     1.533000000
H     5.506000000    -3.056000000     1.675000000
H     5.966000000    -1.329000000     1.649000000
C     4.603000000    -1.931000000     0.098000000
C     4.095000000    -3.079000000    -0.568000000
H     4.021000000    -3.996000000     0.012000000
C     4.751000000    -0.778000000    -0.639000000
C     4.034000000    -0.625000000    -1.801000000
H     3.943000000     0.333000000    -2.306000000
C     3.449000000    -1.733000000    -2.479000000
O     2.820000000    -1.449000000    -3.662000000
C     1.388000000    -1.448000000    -3.660000000
C     0.927000000    -0.242000000    -4.444000000
C     1.732000000     0.747000000    -5.003000000
H     2.804000000     0.573000000    -5.034000000
C    -0.429000000    -0.110000000    -4.639000000
H    -1.149000000    -0.785000000    -4.184000000
O     0.768000000    -2.679000000    -4.052000000
H     1.127000000    -1.097000000    -2.651000000
C     3.427000000    -2.943000000    -1.800000000
C     2.786000000    -4.124000000    -2.503000000
H     3.319000000    -4.989000000    -2.102000000
H     2.984000000    -4.081000000    -3.576000000
C     1.271000000    -4.319000000    -2.264000000
C     0.342000000    -3.579000000    -3.087000000
C    -0.988000000    -3.643000000    -2.775000000
H    -1.643000000    -3.020000000    -3.378000000
C    -1.465000000    -4.284000000    -1.605000000
O    -2.762000000    -4.104000000    -1.268000000
C    -3.180000000    -3.158000000    -0.279000000
H    -2.428000000    -2.358000000    -0.199000000
C    -4.419000000    -2.385000000    -0.638000000
C    -5.177000000    -1.752000000     0.387000000
H    -4.979000000    -1.939000000     1.439000000
C    -4.700000000    -2.083000000    -1.935000000
H    -3.912000000    -2.293000000    -2.654000000
C    -5.796000000    -1.242000000    -2.308000000
O    -6.174000000    -1.026000000    -3.629000000
C    -6.600000000    -0.711000000    -1.294000000
H    -7.384000000     0.005000000    -1.529000000
C    -6.249000000    -0.944000000    -0.003000000
O    -7.050000000    -0.374000000     0.949000000
C    -6.765000000    -0.184000000     2.332000000
C    -5.740000000     0.728000000     2.723000000
H    -5.196000000     1.298000000     1.974000000
C    -7.578000000    -0.702000000     3.364000000
H    -8.382000000    -1.375000000     3.076000000
C    -7.323000000    -0.320000000     4.687000000
H    -8.063000000    -0.632000000     5.419000000
C    -6.351000000     0.652000000     5.010000000
H    -6.143000000     0.971000000     6.028000000
C    -5.480000000     1.020000000     4.048000000
O    -4.755000000     2.125000000     4.373000000
C    -3.385000000     2.190000000     4.113000000
C    -2.753000000     3.262000000     3.412000000
H    -3.351000000     4.159000000     3.272000000
C    -1.421000000     3.237000000     3.073000000
O    -0.814000000     4.456000000     2.722000000
C     0.327000000     4.820000000     3.439000000
C     1.545000000     4.917000000     2.715000000
H     1.629000000     4.599000000     1.679000000
C     0.266000000     5.176000000     4.825000000
H    -0.715000000     5.155000000     5.292000000
C     1.380000000     5.692000000     5.469000000
H     1.343000000     6.038000000     6.499000000
C     2.570000000     5.880000000     4.697000000
H     3.460000000     6.347000000     5.110000000
C     2.614000000     5.467000000     3.376000000
O     3.890000000     5.582000000     2.791000000
C     4.266000000     4.850000000     1.673000000
C     4.151000000     5.346000000     0.403000000
H     4.126000000     6.425000000     0.275000000
C     4.237000000     4.528000000    -0.736000000
O     4.144000000     5.139000000    -2.001000000
C     4.218000000     4.540000000    -3.182000000
C     3.126000000     3.952000000    -3.877000000
H     2.114000000     3.949000000    -3.483000000
C     5.448000000     4.393000000    -3.838000000
H     6.335000000     4.742000000    -3.315000000
C     5.555000000     3.792000000    -5.094000000
H     6.557000000     3.774000000    -5.514000000
C     4.461000000     3.275000000    -5.769000000
H     4.636000000     2.866000000    -6.761000000
C     3.218000000     3.276000000    -5.150000000
O     2.103000000     2.969000000    -5.920000000
C     1.216000000     1.969000000    -5.488000000
C    -0.155000000     2.126000000    -5.525000000
H    -0.554000000     3.100000000    -5.795000000
C    -0.984000000     1.058000000    -5.144000000
O    -2.338000000     1.233000000    -5.168000000
C    -3.171000000     0.195000000    -5.251000000
C    -2.929000000    -0.780000000    -6.200000000
H    -2.055000000    -0.693000000    -6.840000000
C    -3.712000000    -1.886000000    -6.304000000
H    -3.421000000    -2.633000000    -7.038000000
C    -4.886000000    -1.941000000    -5.541000000
H    -5.545000000    -2.804000000    -5.512000000
C    -5.121000000    -0.927000000    -4.579000000
C    -4.250000000     0.097000000    -4.407000000
H    -4.306000000     0.823000000    -3.599000000
C    -0.350000000     2.340000000    -1.364000000
H    -0.236000000     3.288000000    -1.882000000
C     0.798000000     1.637000000    -1.124000000
H     1.757000000     2.021000000    -1.465000000
C     0.743000000     0.465000000    -0.362000000
H     1.577000000    -0.321000000    -0.241000000
C    -0.464000000     0.051000000     0.186000000
H    -0.628000000    -0.858000000     0.759000000
C    -1.657000000     0.827000000    -0.139000000
H    -2.637000000     0.511000000     0.209000000
C    -1.596000000     1.920000000    -0.973000000
C    -2.820000000     2.797000000    -1.334000000
O    -3.809000000     2.704000000    -0.612000000
O    -2.896000000     3.501000000    -2.356000000
O    -4.130000000     5.253000000     0.533000000
H    -3.324000000     5.604000000     0.154000000
H    -4.223000000     4.386000000     0.138000000
O     0.757000000     5.887000000    -1.780000000
H     0.200000000     5.436000000    -1.146000000
H     0.255000000     5.870000000    -2.595000000
O    -1.834000000     4.414000000    -7.704000000
H    -1.460000000     5.260000000    -7.457000000
H    -2.490000000     4.235000000    -7.030000000
O    -4.357000000     6.227000000    -4.124000000
H    -3.738000000     6.928000000    -3.920000000
H    -4.785000000     6.513000000    -4.931000000
O    -5.250000000     4.162000000    -2.895000000
H    -4.375000000     3.801000000    -2.754000000
H    -5.099000000     4.982000000    -3.364000000
O    -9.228000000     2.653000000    -0.236000000
H    -8.303000000     2.858000000    -0.372000000
H    -9.378000000     1.866000000    -0.759000000
O    -6.463000000     3.266000000    -0.453000000
H    -5.649000000     2.855000000    -0.161000000
H    -6.246000000     3.650000000    -1.303000000
O    -5.533000000     2.227000000    -6.386000000
H    -6.011000000     2.324000000    -5.563000000
H    -4.617000000     2.376000000    -6.151000000
O    -7.592000000     2.224000000    -4.309000000
H    -7.226000000     2.256000000    -3.426000000
H    -8.102000000     1.414000000    -4.327000000
O    -1.359000000     6.818000000     1.171000000
H    -1.519000000     6.085000000     1.765000000
H    -1.549000000     6.467000000     0.301000000
O    -2.940000000     3.964000000    -4.970000000
H    -2.887000000     3.390000000    -4.207000000
H    -3.606000000     4.612000000    -4.738000000
O     1.554000000     8.219000000    -0.828000000
H     1.396000000     7.417000000    -1.325000000
H     0.887000000     8.830000000    -1.141000000
O    -2.790000000     8.150000000    -3.163000000
H    -2.274000000     8.621000000    -3.817000000
H    -3.618000000     8.628000000    -3.122000000
O    -6.369000000     6.575000000    -0.994000000
H    -7.003000000     6.138000000    -1.563000000
H    -5.923000000     5.860000000    -0.539000000
O    -4.698000000     7.930000000     2.382000000
H    -3.835000000     8.316000000     2.533000000
H    -4.557000000     6.987000000     2.468000000
O    -0.531000000     5.463000000    -4.225000000
H    -0.673000000     5.980000000    -5.018000000
H    -1.262000000     4.846000000    -4.207000000
O    -8.240000000     4.800000000    -5.406000000
H    -9.145000000     4.502000000    -5.314000000
H    -7.713000000     4.065000000    -5.093000000
O    -2.161000000     6.116000000    -1.520000000
H    -2.415000000     6.913000000    -1.985000000
H    -2.655000000     5.419000000    -1.953000000
O    -7.144000000     4.204000000     2.260000000
H    -6.384000000     4.443000000     2.791000000
H    -6.779000000     3.992000000     1.401000000
