215
-1446.39708
C    -1.209000000     2.102000000     3.884000000
H    -0.126000000     2.014000000     3.903000000
C    -1.963000000     0.863000000     3.918000000
C    -3.328000000     0.922000000     3.797000000
H    -3.918000000     0.011000000     3.750000000
C    -1.260000000    -0.478000000     3.901000000
O    -0.123000000    -0.484000000     4.773000000
H    -1.077000000    -0.591000000     2.823000000
O    -2.128000000    -1.643000000     4.271000000
C    -1.965000000    -2.722000000     3.469000000
C    -2.883000000    -2.885000000     2.493000000
H    -3.723000000    -2.195000000     2.487000000
C    -2.627000000    -3.858000000     1.439000000
O    -3.479000000    -3.841000000     0.331000000
C    -1.465000000    -4.619000000     1.500000000
C    -1.153000000    -5.575000000     0.363000000
H    -0.547000000    -6.440000000     0.641000000
C    -0.435000000    -4.937000000    -0.801000000
C     0.962000000    -4.917000000    -0.810000000
H     1.574000000    -5.312000000    -0.003000000
H    -2.117000000    -5.940000000     0.001000000
C    -0.570000000    -4.437000000     2.541000000
H     0.305000000    -5.078000000     2.607000000
C    -0.821000000    -3.538000000     3.595000000
C     0.313000000    -3.312000000     4.566000000
H     0.788000000    -4.293000000     4.623000000
H    -0.053000000    -3.000000000     5.547000000
C     1.272000000    -2.247000000     4.014000000
C     2.511000000    -2.583000000     3.467000000
H     2.848000000    -3.614000000     3.396000000
C     1.007000000    -0.853000000     4.227000000
C     2.001000000     0.099000000     3.931000000
H     1.814000000     1.168000000     3.994000000
C     3.186000000    -0.285000000     3.265000000
O     4.003000000     0.685000000     2.748000000
C     3.870000000     1.143000000     1.446000000
C     4.116000000     2.658000000     1.368000000
C     4.657000000     3.165000000     0.175000000
H     4.790000000     2.473000000    -0.653000000
C     3.777000000     3.511000000     2.369000000
H     3.278000000     3.207000000     3.285000000
O     4.802000000     0.428000000     0.583000000
H     2.844000000     0.918000000     1.119000000
C     3.378000000    -1.608000000     3.012000000
C     4.634000000    -2.030000000     2.275000000
H     4.865000000    -3.067000000     2.525000000
H     5.473000000    -1.357000000     2.462000000
C     4.425000000    -1.945000000     0.796000000
C     3.966000000    -3.087000000     0.120000000
H     3.663000000    -3.979000000     0.661000000
C     4.524000000    -0.811000000     0.126000000
C     4.248000000    -0.721000000    -1.238000000
H     4.251000000     0.167000000    -1.864000000
C     3.869000000    -1.847000000    -1.875000000
O     3.509000000    -1.685000000    -3.232000000
C     2.093000000    -1.585000000    -3.307000000
C     1.694000000    -0.433000000    -4.301000000
C     2.108000000     0.843000000    -3.907000000
H     2.718000000     0.912000000    -3.010000000
C     0.826000000    -0.579000000    -5.354000000
H     0.424000000    -1.545000000    -5.648000000
O     1.598000000    -2.872000000    -3.736000000
H     1.663000000    -1.315000000    -2.332000000
C     3.723000000    -3.053000000    -1.229000000
C     3.178000000    -4.309000000    -1.807000000
H     3.504000000    -5.234000000    -1.326000000
H     3.511000000    -4.304000000    -2.847000000
C     1.663000000    -4.339000000    -1.858000000
C     0.950000000    -3.624000000    -2.894000000
C    -0.422000000    -3.607000000    -2.777000000
H    -0.986000000    -2.990000000    -3.473000000
C    -1.111000000    -4.255000000    -1.796000000
O    -2.453000000    -4.138000000    -1.767000000
C    -3.066000000    -3.114000000    -0.856000000
H    -2.247000000    -2.436000000    -0.574000000
C    -4.234000000    -2.261000000    -1.447000000
C    -5.329000000    -1.941000000    -0.665000000
H    -5.512000000    -2.391000000     0.308000000
C    -4.024000000    -1.636000000    -2.692000000
H    -3.081000000    -1.788000000    -3.211000000
C    -4.722000000    -0.522000000    -3.065000000
O    -4.431000000     0.235000000    -4.162000000
C    -5.900000000    -0.249000000    -2.334000000
H    -6.562000000     0.594000000    -2.520000000
C    -6.117000000    -0.906000000    -1.095000000
O    -7.242000000    -0.615000000    -0.343000000
C    -7.068000000    -0.270000000     1.010000000
C    -6.185000000     0.720000000     1.450000000
H    -5.440000000     1.099000000     0.754000000
C    -7.900000000    -0.789000000     1.975000000
H    -8.570000000    -1.549000000     1.581000000
C    -7.762000000    -0.465000000     3.311000000
H    -8.385000000    -0.980000000     4.038000000
C    -6.952000000     0.614000000     3.732000000
H    -6.916000000     0.959000000     4.762000000
C    -6.177000000     1.246000000     2.771000000
O    -5.298000000     2.290000000     3.093000000
C    -4.003000000     2.129000000     3.538000000
C    -3.267000000     3.332000000     3.459000000
H    -3.747000000     4.289000000     3.272000000
C    -1.840000000     3.318000000     3.662000000
O    -1.142000000     4.503000000     3.364000000
C     0.035000000     4.882000000     3.968000000
C     1.185000000     5.215000000     3.271000000
H     1.150000000     5.211000000     2.185000000
C     0.070000000     4.922000000     5.384000000
H    -0.761000000     4.695000000     6.048000000
C     1.223000000     5.408000000     6.010000000
H     1.415000000     5.633000000     7.056000000
C     2.385000000     5.616000000     5.292000000
H     3.315000000     5.820000000     5.817000000
C     2.389000000     5.529000000     3.907000000
O     3.588000000     5.727000000     3.212000000
C     3.991000000     4.861000000     2.258000000
C     4.643000000     5.371000000     1.135000000
H     4.761000000     6.438000000     0.966000000
C     5.038000000     4.517000000     0.108000000
O     5.345000000     5.132000000    -1.144000000
C     4.961000000     4.639000000    -2.364000000
C     3.655000000     4.233000000    -2.622000000
H     2.898000000     4.364000000    -1.853000000
C     5.992000000     4.435000000    -3.309000000
H     7.001000000     4.757000000    -3.066000000
C     5.682000000     3.892000000    -4.516000000
H     6.341000000     3.693000000    -5.357000000
C     4.365000000     3.475000000    -4.742000000
H     4.119000000     3.143000000    -5.747000000
C     3.275000000     3.575000000    -3.763000000
O     1.963000000     3.233000000    -4.069000000
C     1.652000000     1.975000000    -4.622000000
C     0.834000000     1.793000000    -5.690000000
H     0.491000000     2.656000000    -6.255000000
C     0.380000000     0.552000000    -6.062000000
O    -0.609000000     0.443000000    -7.022000000
C    -1.882000000    -0.068000000    -6.737000000
C    -2.602000000    -0.825000000    -7.723000000
H    -2.070000000    -0.921000000    -8.666000000
C    -3.873000000    -1.316000000    -7.398000000
H    -4.423000000    -1.877000000    -8.149000000
C    -4.421000000    -1.052000000    -6.133000000
H    -5.438000000    -1.372000000    -5.921000000
C    -3.780000000    -0.203000000    -5.280000000
C    -2.504000000     0.222000000    -5.520000000
H    -1.944000000     0.822000000    -4.807000000
C    -0.983000000     1.703000000    -1.980000000
H    -0.399000000     2.084000000    -2.814000000
C    -0.505000000     0.769000000    -1.160000000
H     0.503000000     0.393000000    -1.319000000
C    -1.281000000     0.124000000    -0.194000000
H    -0.731000000    -0.627000000     0.402000000
C    -2.481000000     0.701000000     0.178000000
H    -2.995000000     0.324000000     1.059000000
C    -2.969000000     1.767000000    -0.623000000
H    -3.949000000     2.172000000    -0.386000000
C    -2.272000000     2.229000000    -1.760000000
C    -2.916000000     3.283000000    -2.636000000
O    -3.815000000     3.936000000    -2.212000000
O    -2.385000000     3.524000000    -3.700000000
O    -5.728000000     5.024000000    -0.615000000
H    -5.224000000     5.730000000    -0.210000000
H    -5.115000000     4.607000000    -1.220000000
O     2.133000000     7.207000000    -4.175000000
H     1.804000000     6.408000000    -4.588000000
H     2.848000000     7.493000000    -4.744000000
O    -6.029000000     6.813000000    -2.840000000
H    -5.325000000     7.186000000    -2.310000000
H    -6.098000000     7.398000000    -3.593000000
O    -5.414000000     3.984000000    -4.578000000
H    -4.683000000     3.885000000    -3.968000000
H    -5.895000000     4.746000000    -4.254000000
O    -4.239000000     1.774000000    -8.264000000
H    -3.906000000     2.507000000    -7.746000000
H    -3.943000000     0.995000000    -7.794000000
O     1.020000000     5.172000000    -5.691000000
H     1.346000000     4.354000000    -5.316000000
H     0.117000000     5.235000000    -5.381000000
O    -6.682000000     1.657000000    -5.274000000
H    -5.970000000     1.380000000    -4.698000000
H    -6.512000000     2.584000000    -5.437000000
O    -3.453000000     3.485000000    -6.230000000
H    -4.244000000     3.946000000    -5.952000000
H    -3.106000000     3.098000000    -5.427000000
O    -3.629000000     7.519000000    -1.257000000
H    -3.016000000     8.227000000    -1.454000000
H    -3.113000000     6.720000000    -1.362000000
O    -2.860000000     8.205000000    -4.793000000
H    -2.619000000     8.857000000    -5.451000000
H    -3.769000000     8.411000000    -4.575000000
O    -8.334000000     5.956000000    -1.800000000
H    -8.233000000     6.060000000    -0.854000000
H    -7.438000000     5.926000000    -2.135000000
O    -2.499000000     4.919000000     0.071000000
H    -2.349000000     4.219000000     0.708000000
H    -3.007000000     4.504000000    -0.625000000
O    -5.607000000     7.859000000     0.582000000
H    -6.394000000     8.155000000     0.124000000
H    -5.009000000     7.592000000    -0.116000000
O    -1.389000000     5.844000000    -4.571000000
H    -2.034000000     6.548000000    -4.506000000
H    -1.848000000     5.069000000    -4.247000000
O    -8.660000000     2.225000000    -3.435000000
H    -9.128000000     1.582000000    -2.901000000
H    -8.121000000     1.699000000    -4.025000000
O    -1.713000000     4.954000000    -7.500000000
H    -2.322000000     4.337000000    -7.096000000
H    -1.542000000     5.604000000    -6.819000000
O     0.198000000     6.914000000     0.419000000
H     0.189000000     7.183000000    -0.499000000
H    -0.462000000     6.222000000     0.473000000
O    -7.803000000     3.434000000     0.112000000
H    -7.022000000     3.859000000    -0.241000000
H    -8.499000000     4.082000000     0.003000000
O    -0.420000000     7.882000000    -2.209000000
H     0.333000000     8.111000000    -2.753000000
H    -0.997000000     7.391000000    -2.794000000
