215
-1455.78473
C    -0.836000000     2.519000000     3.575000000
H     0.211000000     2.565000000     3.286000000
C    -1.492000000     1.364000000     3.951000000
C    -2.910000000     1.422000000     4.140000000
H    -3.449000000     0.514000000     4.399000000
C    -0.702000000     0.079000000     3.983000000
O     0.476000000     0.285000000     4.763000000
H    -0.444000000    -0.249000000     2.965000000
O    -1.621000000    -0.947000000     4.417000000
C    -1.516000000    -2.138000000     3.774000000
C    -2.536000000    -2.435000000     2.866000000
H    -3.357000000    -1.736000000     2.727000000
C    -2.392000000    -3.529000000     1.990000000
O    -3.447000000    -3.587000000     1.050000000
C    -1.271000000    -4.369000000     2.115000000
C    -1.001000000    -5.563000000     1.171000000
H    -0.405000000    -6.412000000     1.514000000
C    -0.459000000    -5.112000000    -0.234000000
C     0.951000000    -5.094000000    -0.364000000
H     1.681000000    -5.361000000     0.396000000
H    -2.004000000    -5.949000000     0.977000000
C    -0.208000000    -4.029000000     3.007000000
H     0.741000000    -4.560000000     3.024000000
C    -0.338000000    -2.928000000     3.878000000
C     0.802000000    -2.544000000     4.777000000
H     1.344000000    -3.450000000     5.059000000
H     0.441000000    -2.209000000     5.752000000
C     1.903000000    -1.555000000     4.228000000
C     3.084000000    -2.069000000     3.630000000
H     3.214000000    -3.146000000     3.556000000
C     1.671000000    -0.187000000     4.265000000
C     2.600000000     0.708000000     3.793000000
H     2.440000000     1.775000000     3.923000000
C     3.729000000     0.222000000     3.180000000
O     4.615000000     1.065000000     2.615000000
C     4.329000000     1.333000000     1.180000000
C     4.431000000     2.824000000     0.807000000
C     4.739000000     3.267000000    -0.511000000
H     4.979000000     2.511000000    -1.255000000
C     4.249000000     3.833000000     1.810000000
H     4.043000000     3.546000000     2.838000000
O     5.233000000     0.544000000     0.386000000
H     3.278000000     1.065000000     0.997000000
C     3.934000000    -1.127000000     3.029000000
C     5.043000000    -1.705000000     2.180000000
H     5.092000000    -2.733000000     2.545000000
H     6.050000000    -1.285000000     2.190000000
C     4.621000000    -1.871000000     0.734000000
C     4.051000000    -3.011000000     0.261000000
H     3.923000000    -3.886000000     0.894000000
C     4.775000000    -0.699000000    -0.043000000
C     4.330000000    -0.789000000    -1.341000000
H     4.437000000     0.082000000    -1.983000000
C     3.587000000    -1.829000000    -1.811000000
O     2.957000000    -1.734000000    -2.994000000
C     1.482000000    -1.775000000    -3.120000000
C     0.899000000    -0.651000000    -3.985000000
C     1.297000000     0.666000000    -3.745000000
H     2.072000000     0.927000000    -3.030000000
C    -0.013000000    -0.916000000    -4.956000000
H    -0.357000000    -1.929000000    -5.147000000
O     1.003000000    -3.099000000    -3.490000000
H     1.157000000    -1.519000000    -2.100000000
C     3.514000000    -3.005000000    -0.999000000
C     3.018000000    -4.282000000    -1.664000000
H     3.490000000    -5.106000000    -1.126000000
H     3.252000000    -4.267000000    -2.731000000
C     1.454000000    -4.417000000    -1.511000000
C     0.537000000    -3.829000000    -2.436000000
C    -0.811000000    -3.942000000    -2.313000000
H    -1.406000000    -3.589000000    -3.151000000
C    -1.356000000    -4.599000000    -1.237000000
O    -2.704000000    -4.512000000    -1.002000000
C    -3.135000000    -3.342000000    -0.291000000
H    -2.252000000    -2.692000000    -0.383000000
C    -4.214000000    -2.548000000    -1.003000000
C    -4.954000000    -1.667000000    -0.220000000
H    -4.873000000    -1.586000000     0.861000000
C    -4.350000000    -2.579000000    -2.424000000
H    -3.726000000    -3.222000000    -3.039000000
C    -5.332000000    -1.738000000    -2.967000000
O    -5.526000000    -1.719000000    -4.318000000
C    -6.072000000    -0.855000000    -2.230000000
H    -6.837000000    -0.230000000    -2.684000000
C    -5.915000000    -0.857000000    -0.835000000
O    -6.557000000     0.093000000    -0.098000000
C    -6.497000000     0.285000000     1.317000000
C    -5.765000000     1.320000000     1.856000000
H    -5.196000000     1.958000000     1.185000000
C    -7.262000000    -0.511000000     2.157000000
H    -7.875000000    -1.333000000     1.796000000
C    -7.306000000    -0.223000000     3.537000000
H    -7.874000000    -0.867000000     4.203000000
C    -6.579000000     0.809000000     4.102000000
H    -6.594000000     1.017000000     5.169000000
C    -5.759000000     1.579000000     3.256000000
O    -4.982000000     2.578000000     3.784000000
C    -3.589000000     2.611000000     3.908000000
C    -2.869000000     3.816000000     3.644000000
H    -3.394000000     4.733000000     3.389000000
C    -1.514000000     3.739000000     3.363000000
O    -0.791000000     4.802000000     2.869000000
C     0.383000000     5.222000000     3.501000000
C     1.403000000     5.740000000     2.726000000
H     1.246000000     5.681000000     1.652000000
C     0.596000000     5.247000000     4.900000000
H    -0.191000000     4.865000000     5.544000000
C     1.782000000     5.722000000     5.516000000
H     2.033000000     5.771000000     6.573000000
C     2.854000000     5.901000000     4.614000000
H     3.868000000     5.877000000     5.006000000
C     2.695000000     5.921000000     3.253000000
O     3.800000000     6.065000000     2.379000000
C     4.204000000     5.145000000     1.413000000
C     4.571000000     5.556000000     0.143000000
H     4.815000000     6.589000000    -0.093000000
C     4.809000000     4.611000000    -0.778000000
O     5.004000000     5.018000000    -2.111000000
C     4.372000000     4.320000000    -3.184000000
C     3.007000000     4.081000000    -3.222000000
H     2.453000000     4.501000000    -2.387000000
C     5.143000000     3.915000000    -4.306000000
H     6.166000000     4.260000000    -4.428000000
C     4.618000000     3.166000000    -5.381000000
H     5.338000000     2.757000000    -6.086000000
C     3.286000000     2.841000000    -5.316000000
H     2.970000000     2.093000000    -6.038000000
C     2.516000000     3.289000000    -4.266000000
O     1.140000000     3.005000000    -4.239000000
C     0.701000000     1.692000000    -4.457000000
C    -0.265000000     1.468000000    -5.414000000
H    -0.707000000     2.241000000    -6.037000000
C    -0.650000000     0.160000000    -5.647000000
O    -1.556000000    -0.046000000    -6.627000000
C    -2.674000000    -0.849000000    -6.582000000
C    -3.001000000    -1.692000000    -7.658000000
H    -2.350000000    -1.738000000    -8.527000000
C    -4.130000000    -2.478000000    -7.614000000
H    -4.435000000    -3.148000000    -8.414000000
C    -4.960000000    -2.416000000    -6.498000000
H    -5.860000000    -3.019000000    -6.588000000
C    -4.624000000    -1.645000000    -5.381000000
C    -3.514000000    -0.805000000    -5.466000000
H    -3.333000000    -0.044000000    -4.711000000
C    -0.269000000     2.993000000    -0.112000000
H     0.115000000     3.996000000    -0.276000000
C     0.573000000     1.912000000     0.062000000
H     1.647000000     2.046000000     0.160000000
C     0.078000000     0.628000000     0.322000000
H     0.875000000    -0.175000000     0.632000000
C    -1.235000000     0.395000000     0.435000000
H    -1.561000000    -0.636000000     0.541000000
C    -2.113000000     1.460000000     0.301000000
H    -3.148000000     1.156000000     0.430000000
C    -1.665000000     2.733000000    -0.042000000
C    -2.685000000     3.822000000    -0.273000000
O    -3.900000000     3.637000000    -0.063000000
O    -2.314000000     4.986000000    -0.590000000
O    -6.686000000     4.725000000    -1.549000000
H    -7.097000000     3.872000000    -1.692000000
H    -5.898000000     4.704000000    -2.092000000
O     1.337000000     7.383000000    -0.367000000
H     1.877000000     8.124000000    -0.640000000
H     1.208000000     6.873000000    -1.166000000
O    -4.194000000     7.000000000    -2.475000000
H    -3.802000000     6.386000000    -1.854000000
H    -3.721000000     7.820000000    -2.333000000
O    -6.905000000     4.622000000     3.672000000
H    -7.300000000     4.421000000     2.824000000
H    -5.972000000     4.723000000     3.484000000
O    -5.103000000     2.109000000    -2.158000000
H    -5.940000000     1.904000000    -1.740000000
H    -4.601000000     2.562000000    -1.481000000
O    -5.242000000     1.896000000    -6.496000000
H    -4.636000000     2.381000000    -5.936000000
H    -4.748000000     1.737000000    -7.301000000
O    -3.651000000     2.837000000    -4.594000000
H    -3.973000000     3.737000000    -4.649000000
H    -4.182000000     2.435000000    -3.907000000
O    -4.697000000     5.833000000     1.279000000
H    -4.544000000     4.951000000     0.938000000
H    -4.034000000     6.373000000     0.849000000
O    -0.947000000     4.545000000    -2.907000000
H    -1.327000000     4.822000000    -2.074000000
H    -1.326000000     3.681000000    -3.068000000
O    -6.820000000     7.574000000     1.832000000
H    -6.282000000     6.786000000     1.754000000
H    -6.498000000     8.007000000     2.623000000
O    -7.630000000     7.224000000    -1.012000000
H    -7.311000000     6.349000000    -1.236000000
H    -7.126000000     7.472000000    -0.238000000
O    -2.528000000     7.093000000     3.760000000
H    -2.938000000     7.858000000     3.355000000
H    -2.576000000     6.413000000     3.088000000
O     0.886000000     6.634000000    -3.236000000
H     1.253000000     6.334000000    -4.068000000
H     0.119000000     6.078000000    -3.098000000
O    -7.879000000     2.217000000    -2.055000000
H    -8.563000000     1.961000000    -1.435000000
H    -8.342000000     2.342000000    -2.883000000
O    -4.557000000     9.425000000    -0.268000000
H    -5.012000000     9.527000000     0.567000000
H    -3.879000000     8.773000000    -0.094000000
O    -5.158000000     5.130000000    -4.491000000
H    -5.961000000     5.635000000    -4.617000000
H    -4.561000000     5.734000000    -4.050000000
O    -2.315000000     7.501000000     0.184000000
H    -1.492000000     7.969000000     0.328000000
H    -2.051000000     6.657000000    -0.181000000
O    -3.553000000     9.157000000     2.718000000
H    -3.810000000     9.833000000     3.346000000
H    -3.082000000     9.633000000     2.034000000
O    -7.848000000     4.345000000     1.251000000
H    -7.265000000     4.626000000     0.545000000
H    -8.419000000     3.693000000     0.845000000
