215
-1435.06680
C    -1.864000000     3.048000000     3.841000000
H    -0.854000000     3.105000000     4.240000000
C    -2.477000000     1.788000000     3.543000000
C    -3.724000000     1.728000000     2.965000000
H    -4.121000000     0.779000000     2.612000000
C    -1.650000000     0.501000000     3.827000000
O    -0.572000000     0.657000000     4.824000000
H    -1.140000000     0.200000000     2.900000000
O    -2.494000000    -0.600000000     4.261000000
C    -2.307000000    -1.821000000     3.649000000
C    -3.050000000    -2.117000000     2.583000000
H    -3.896000000    -1.478000000     2.346000000
C    -2.772000000    -3.230000000     1.807000000
O    -3.457000000    -3.461000000     0.709000000
C    -1.667000000    -4.062000000     2.116000000
C    -1.242000000    -5.254000000     1.261000000
H    -0.713000000    -5.966000000     1.898000000
C    -0.358000000    -4.938000000     0.023000000
C     1.055000000    -4.986000000     0.156000000
H     1.450000000    -5.427000000     1.069000000
H    -2.127000000    -5.806000000     0.936000000
C    -0.851000000    -3.683000000     3.147000000
H    -0.004000000    -4.340000000     3.327000000
C    -1.168000000    -2.604000000     3.931000000
C    -0.183000000    -2.245000000     5.035000000
H     0.248000000    -3.199000000     5.346000000
H    -0.775000000    -1.923000000     5.895000000
C     0.844000000    -1.246000000     4.629000000
C     2.040000000    -1.769000000     4.206000000
H     2.252000000    -2.834000000     4.256000000
C     0.600000000     0.108000000     4.477000000
C     1.665000000     0.973000000     4.159000000
H     1.491000000     2.037000000     4.021000000
C     2.913000000     0.433000000     3.800000000
O     3.761000000     1.360000000     3.125000000
C     3.600000000     1.369000000     1.716000000
C     3.557000000     2.787000000     1.131000000
C     3.573000000     3.022000000    -0.251000000
H     3.832000000     2.198000000    -0.911000000
C     3.132000000     3.841000000     1.975000000
H     2.889000000     3.697000000     3.025000000
O     4.654000000     0.617000000     1.205000000
H     2.680000000     0.836000000     1.432000000
C     3.068000000    -0.933000000     3.770000000
C     4.353000000    -1.560000000     3.199000000
H     4.395000000    -2.553000000     3.651000000
H     5.242000000    -1.040000000     3.560000000
C     4.296000000    -1.704000000     1.711000000
C     3.974000000    -2.960000000     1.197000000
H     3.816000000    -3.832000000     1.827000000
C     4.534000000    -0.674000000     0.802000000
C     4.502000000    -0.911000000    -0.563000000
H     4.707000000    -0.081000000    -1.234000000
C     4.173000000    -2.163000000    -1.088000000
O     3.968000000    -2.203000000    -2.424000000
C     2.573000000    -2.097000000    -2.850000000
C     2.439000000    -1.250000000    -4.138000000
C     3.307000000    -0.175000000    -4.359000000
H     4.059000000     0.083000000    -3.618000000
C     1.521000000    -1.647000000    -5.148000000
H     0.925000000    -2.555000000    -5.114000000
O     1.947000000    -3.429000000    -3.111000000
H     1.977000000    -1.503000000    -2.142000000
C     3.918000000    -3.184000000    -0.144000000
C     3.362000000    -4.486000000    -0.702000000
H     3.824000000    -5.245000000    -0.068000000
H     3.751000000    -4.745000000    -1.689000000
C     1.885000000    -4.523000000    -0.877000000
C     1.282000000    -4.000000000    -2.044000000
C    -0.094000000    -4.079000000    -2.200000000
H    -0.492000000    -3.774000000    -3.164000000
C    -0.945000000    -4.530000000    -1.160000000
O    -2.315000000    -4.206000000    -1.224000000
C    -2.812000000    -3.070000000    -0.519000000
H    -2.007000000    -2.403000000    -0.178000000
C    -3.821000000    -2.223000000    -1.396000000
C    -5.017000000    -1.605000000    -0.923000000
H    -5.346000000    -1.709000000     0.108000000
C    -3.356000000    -1.836000000    -2.682000000
H    -2.351000000    -2.077000000    -3.019000000
C    -4.194000000    -1.210000000    -3.563000000
O    -3.834000000    -0.943000000    -4.796000000
C    -5.373000000    -0.710000000    -3.112000000
H    -5.907000000    -0.064000000    -3.804000000
C    -5.784000000    -0.844000000    -1.748000000
O    -6.954000000    -0.163000000    -1.370000000
C    -7.053000000     0.293000000    -0.063000000
C    -6.282000000     1.358000000     0.330000000
H    -5.498000000     1.782000000    -0.293000000
C    -7.934000000    -0.328000000     0.764000000
H    -8.467000000    -1.147000000     0.290000000
C    -8.114000000     0.097000000     2.074000000
H    -8.890000000    -0.390000000     2.659000000
C    -7.336000000     1.159000000     2.498000000
H    -7.625000000     1.510000000     3.486000000
C    -6.366000000     1.759000000     1.684000000
O    -5.694000000     2.846000000     2.147000000
C    -4.439000000     2.891000000     2.683000000
C    -3.921000000     4.131000000     3.054000000
H    -4.470000000     5.066000000     2.983000000
C    -2.607000000     4.164000000     3.654000000
O    -2.019000000     5.425000000     3.949000000
C    -0.718000000     5.754000000     4.154000000
C     0.226000000     5.468000000     3.184000000
H    -0.029000000     4.785000000     2.378000000
C    -0.365000000     6.618000000     5.227000000
H    -1.187000000     7.039000000     5.801000000
C     0.930000000     7.242000000     5.302000000
H     1.156000000     8.032000000     6.013000000
C     1.842000000     6.905000000     4.327000000
H     2.836000000     7.332000000     4.218000000
C     1.485000000     6.074000000     3.283000000
O     2.491000000     6.065000000     2.249000000
C     2.767000000     5.053000000     1.410000000
C     2.852000000     5.277000000     0.087000000
H     2.425000000     6.177000000    -0.350000000
C     3.201000000     4.221000000    -0.748000000
O     3.204000000     4.452000000    -2.127000000
C     4.082000000     3.820000000    -2.984000000
C     3.536000000     3.042000000    -4.009000000
H     2.460000000     2.953000000    -4.131000000
C     5.454000000     3.829000000    -2.727000000
H     5.889000000     4.352000000    -1.879000000
C     6.293000000     3.190000000    -3.621000000
H     7.378000000     3.175000000    -3.567000000
C     5.807000000     2.531000000    -4.673000000
H     6.437000000     1.819000000    -5.200000000
C     4.445000000     2.400000000    -4.886000000
O     3.967000000     1.567000000    -5.799000000
C     3.156000000     0.526000000    -5.521000000
C     2.106000000     0.255000000    -6.405000000
H     1.904000000     1.003000000    -7.168000000
C     1.282000000    -0.868000000    -6.296000000
O     0.299000000    -1.209000000    -7.186000000
C    -0.891000000    -1.815000000    -6.821000000
C    -1.109000000    -3.178000000    -7.106000000
H    -0.423000000    -3.792000000    -7.684000000
C    -2.305000000    -3.805000000    -6.659000000
H    -2.497000000    -4.850000000    -6.890000000
C    -3.169000000    -3.039000000    -5.844000000
H    -4.168000000    -3.451000000    -5.732000000
C    -2.900000000    -1.696000000    -5.536000000
C    -1.757000000    -1.097000000    -6.018000000
H    -1.571000000    -0.049000000    -5.796000000
C     0.161000000     1.326000000    -1.829000000
H     0.535000000     1.960000000    -2.628000000
C     1.057000000     0.458000000    -1.178000000
H     2.121000000     0.424000000    -1.400000000
C     0.667000000    -0.321000000    -0.129000000
H     1.317000000    -1.029000000     0.333000000
C    -0.586000000    -0.183000000     0.384000000
H    -0.873000000    -0.820000000     1.217000000
C    -1.561000000     0.634000000    -0.251000000
H    -2.601000000     0.716000000     0.054000000
C    -1.168000000     1.447000000    -1.346000000
C    -2.183000000     2.262000000    -2.116000000
O    -3.120000000     2.603000000    -1.531000000
O    -2.052000000     2.630000000    -3.258000000
O    -4.365000000     4.853000000    -0.543000000
H    -3.920000000     4.006000000    -0.511000000
H    -5.296000000     4.635000000    -0.513000000
O     2.617000000     6.891000000    -3.745000000
H     1.794000000     6.419000000    -3.875000000
H     3.284000000     6.205000000    -3.716000000
O    -0.367000000     1.643000000    -8.305000000
H    -0.136000000     1.782000000    -7.386000000
H    -1.233000000     1.237000000    -8.275000000
O    -7.368000000     3.228000000    -5.753000000
H    -6.684000000     3.897000000    -5.718000000
H    -7.226000000     2.699000000    -4.968000000
O    -0.706000000     5.180000000    -0.516000000
H    -0.199000000     4.486000000    -0.095000000
H    -1.145000000     4.746000000    -1.248000000
O    -2.527000000     5.086000000    -3.982000000
H    -3.204000000     4.886000000    -4.629000000
H    -2.372000000     4.255000000    -3.532000000
O    -3.285000000     4.288000000    -6.677000000
H    -3.495000000     5.221000000    -6.644000000
H    -2.782000000     4.184000000    -7.485000000
O    -6.938000000     5.077000000     0.984000000
H    -7.681000000     4.533000000     0.724000000
H    -6.405000000     4.506000000     1.537000000
O    -6.269000000     5.209000000    -3.123000000
H    -6.188000000     5.339000000    -4.068000000
H    -6.028000000     4.293000000    -2.986000000
O    -3.109000000     1.910000000    -5.809000000
H    -2.854000000     2.065000000    -4.900000000
H    -3.250000000     2.784000000    -6.172000000
O    -3.526000000     6.905000000    -2.011000000
H    -3.915000000     6.150000000    -1.570000000
H    -3.059000000     6.532000000    -2.758000000
O    -0.252000000     2.271000000    -5.310000000
H     0.349000000     1.601000000    -4.986000000
H    -0.831000000     2.453000000    -4.570000000
O    -3.007000000     6.673000000     0.947000000
H    -3.671000000     6.075000000     0.602000000
H    -2.227000000     6.492000000     0.423000000
O    -2.860000000     0.432000000    -8.272000000
H    -3.242000000     1.199000000    -8.698000000
H    -2.996000000     0.584000000    -7.337000000
O    -5.776000000     0.626000000    -6.516000000
H    -4.976000000     0.586000000    -5.992000000
H    -6.288000000    -0.130000000    -6.229000000
O     0.284000000     5.438000000    -4.686000000
H     0.211000000     4.539000000    -5.007000000
H    -0.557000000     5.610000000    -4.263000000
O    -5.168000000     2.824000000    -3.247000000
H    -4.837000000     2.267000000    -3.952000000
H    -4.509000000     2.752000000    -2.556000000
O    -0.276000000     7.332000000    -2.085000000
H    -0.296000000     6.557000000    -1.524000000
H    -0.443000000     8.063000000    -1.490000000
O     0.476000000     3.032000000     0.723000000
H     0.089000000     2.176000000     0.540000000
H     1.244000000     2.838000000     1.260000000
