215
-1431.03183
C    -2.028000000     3.173000000     3.981000000
H    -1.087000000     3.313000000     4.507000000
C    -2.431000000     1.905000000     3.632000000
C    -3.496000000     1.772000000     2.756000000
H    -3.844000000     0.835000000     2.328000000
C    -1.566000000     0.658000000     3.907000000
O    -0.624000000     0.856000000     5.077000000
H    -0.905000000     0.379000000     3.073000000
O    -2.423000000    -0.440000000     4.212000000
C    -2.149000000    -1.652000000     3.620000000
C    -2.945000000    -2.064000000     2.581000000
H    -3.808000000    -1.424000000     2.413000000
C    -2.590000000    -3.161000000     1.877000000
O    -3.267000000    -3.344000000     0.676000000
C    -1.519000000    -3.981000000     2.204000000
C    -1.177000000    -5.212000000     1.443000000
H    -0.854000000    -6.129000000     1.941000000
C    -0.232000000    -4.871000000     0.297000000
C     1.176000000    -4.942000000     0.341000000
H     1.660000000    -5.284000000     1.253000000
H    -2.148000000    -5.459000000     1.009000000
C    -0.773000000    -3.620000000     3.333000000
H     0.152000000    -4.111000000     3.624000000
C    -1.037000000    -2.436000000     4.032000000
C    -0.216000000    -2.016000000     5.238000000
H     0.372000000    -2.846000000     5.636000000
H    -0.908000000    -1.587000000     5.966000000
C     0.841000000    -1.054000000     4.807000000
C     2.135000000    -1.459000000     4.425000000
H     2.377000000    -2.510000000     4.562000000
C     0.618000000     0.332000000     4.868000000
C     1.524000000     1.272000000     4.328000000
H     1.222000000     2.316000000     4.308000000
C     2.647000000     0.818000000     3.729000000
O     3.438000000     1.758000000     3.120000000
C     3.428000000     1.794000000     1.696000000
C     3.329000000     3.204000000     1.130000000
C     3.624000000     3.391000000    -0.213000000
H     3.914000000     2.587000000    -0.885000000
C     2.831000000     4.190000000     1.889000000
H     2.613000000     4.015000000     2.939000000
O     4.681000000     1.047000000     1.206000000
H     2.531000000     1.246000000     1.372000000
C     2.974000000    -0.519000000     3.763000000
C     4.322000000    -1.053000000     3.164000000
H     4.612000000    -1.926000000     3.752000000
H     5.081000000    -0.279000000     3.297000000
C     4.180000000    -1.287000000     1.665000000
C     4.016000000    -2.575000000     1.282000000
H     4.033000000    -3.401000000     1.987000000
C     4.366000000    -0.213000000     0.763000000
C     4.319000000    -0.506000000    -0.601000000
H     4.372000000     0.307000000    -1.320000000
C     4.035000000    -1.841000000    -1.001000000
O     3.887000000    -2.105000000    -2.348000000
C     2.525000000    -2.239000000    -2.807000000
C     2.269000000    -1.495000000    -4.089000000
C     2.884000000    -0.257000000    -4.266000000
H     3.534000000     0.040000000    -3.447000000
C     1.341000000    -1.936000000    -5.053000000
H     0.751000000    -2.824000000    -4.840000000
O     2.167000000    -3.665000000    -2.920000000
H     1.797000000    -1.727000000    -2.161000000
C     3.846000000    -2.850000000    -0.063000000
C     3.503000000    -4.298000000    -0.492000000
H     3.782000000    -4.957000000     0.332000000
H     4.122000000    -4.718000000    -1.287000000
C     2.005000000    -4.582000000    -0.735000000
C     1.428000000    -4.148000000    -1.893000000
C     0.007000000    -4.057000000    -1.959000000
H    -0.542000000    -3.731000000    -2.839000000
C    -0.798000000    -4.387000000    -0.909000000
O    -2.135000000    -4.127000000    -1.136000000
C    -2.711000000    -3.006000000    -0.602000000
H    -1.930000000    -2.253000000    -0.419000000
C    -3.727000000    -2.388000000    -1.537000000
C    -4.909000000    -1.853000000    -1.087000000
H    -5.022000000    -1.784000000    -0.008000000
C    -3.442000000    -2.248000000    -2.947000000
H    -2.433000000    -2.550000000    -3.216000000
C    -4.434000000    -1.777000000    -3.842000000
O    -4.221000000    -1.829000000    -5.211000000
C    -5.584000000    -1.226000000    -3.333000000
H    -6.378000000    -0.971000000    -4.031000000
C    -5.799000000    -1.176000000    -1.962000000
O    -6.921000000    -0.664000000    -1.333000000
C    -6.894000000    -0.003000000    -0.151000000
C    -6.131000000     1.196000000    -0.010000000
H    -5.512000000     1.604000000    -0.804000000
C    -7.609000000    -0.561000000     0.843000000
H    -8.129000000    -1.510000000     0.745000000
C    -7.633000000     0.040000000     2.121000000
H    -8.237000000    -0.382000000     2.920000000
C    -6.840000000     1.166000000     2.356000000
H    -6.771000000     1.569000000     3.364000000
C    -6.090000000     1.728000000     1.281000000
O    -5.286000000     2.841000000     1.472000000
C    -4.221000000     2.876000000     2.415000000
C    -3.917000000     4.160000000     2.862000000
H    -4.336000000     5.021000000     2.347000000
C    -2.789000000     4.296000000     3.598000000
O    -2.266000000     5.555000000     3.899000000
C    -0.878000000     5.830000000     4.053000000
C     0.050000000     5.809000000     2.990000000
H    -0.342000000     5.622000000     1.994000000
C    -0.461000000     6.228000000     5.326000000
H    -1.080000000     6.152000000     6.216000000
C     0.851000000     6.583000000     5.532000000
H     1.160000000     6.944000000     6.510000000
C     1.725000000     6.712000000     4.475000000
H     2.741000000     7.076000000     4.600000000
C     1.320000000     6.361000000     3.146000000
O     2.213000000     6.483000000     2.107000000
C     2.664000000     5.439000000     1.357000000
C     2.917000000     5.624000000     0.041000000
H     2.708000000     6.609000000    -0.368000000
C     3.314000000     4.611000000    -0.805000000
O     3.799000000     4.854000000    -2.095000000
C     4.359000000     3.983000000    -2.942000000
C     3.552000000     3.286000000    -3.840000000
H     2.488000000     3.479000000    -3.950000000
C     5.707000000     3.676000000    -3.001000000
H     6.345000000     4.214000000    -2.305000000
C     6.315000000     2.815000000    -3.829000000
H     7.400000000     2.758000000    -3.830000000
C     5.517000000     2.077000000    -4.688000000
H     5.976000000     1.403000000    -5.406000000
C     4.112000000     2.282000000    -4.690000000
O     3.328000000     1.644000000    -5.654000000
C     2.729000000     0.467000000    -5.454000000
C     1.878000000    -0.103000000    -6.437000000
H     1.644000000     0.465000000    -7.334000000
C     1.090000000    -1.218000000    -6.215000000
O     0.107000000    -1.512000000    -7.138000000
C    -1.014000000    -2.162000000    -6.859000000
C    -1.016000000    -3.550000000    -7.134000000
H    -0.202000000    -4.030000000    -7.672000000
C    -2.074000000    -4.370000000    -6.802000000
H    -1.859000000    -5.380000000    -7.143000000
C    -3.136000000    -3.849000000    -6.102000000
H    -3.999000000    -4.468000000    -5.872000000
C    -3.150000000    -2.447000000    -5.853000000
C    -2.146000000    -1.613000000    -6.340000000
H    -2.233000000    -0.530000000    -6.350000000
C    -0.152000000     1.559000000    -2.005000000
H     0.224000000     1.973000000    -2.937000000
C     0.777000000     0.905000000    -1.210000000
H     1.803000000     0.895000000    -1.568000000
C     0.370000000     0.121000000    -0.163000000
H     1.008000000    -0.540000000     0.467000000
C    -0.995000000     0.172000000     0.286000000
H    -1.248000000    -0.322000000     1.220000000
C    -1.905000000     0.897000000    -0.448000000
H    -2.939000000     0.942000000    -0.118000000
C    -1.484000000     1.537000000    -1.613000000
C    -2.475000000     2.297000000    -2.412000000
O    -3.359000000     2.862000000    -1.964000000
O    -2.411000000     2.289000000    -3.634000000
O    -5.257000000     4.194000000    -3.249000000
H    -4.588000000     3.666000000    -2.814000000
H    -4.935000000     5.093000000    -3.181000000
O     0.564000000     3.913000000    -7.674000000
H     0.917000000     4.782000000    -7.481000000
H     0.484000000     3.492000000    -6.819000000
O    -7.873000000     4.567000000    -6.422000000
H    -7.181000000     4.056000000    -6.002000000
H    -8.672000000     4.313000000    -5.959000000
O    -2.329000000     4.962000000     0.013000000
H    -2.066000000     4.558000000     0.839000000
H    -2.515000000     4.224000000    -0.567000000
O    -2.285000000     4.634000000    -4.917000000
H    -1.526000000     4.517000000    -5.488000000
H    -2.432000000     3.769000000    -4.534000000
O    -1.294000000     1.095000000    -8.712000000
H    -2.064000000     0.549000000    -8.869000000
H    -1.650000000     1.934000000    -8.422000000
O    -2.422000000     3.883000000    -8.066000000
H    -2.160000000     4.684000000    -8.519000000
H    -3.168000000     3.556000000    -8.569000000
O    -4.037000000     6.204000000    -5.939000000
H    -4.345000000     5.619000000    -6.631000000
H    -3.331000000     5.719000000    -5.513000000
O    -5.446000000     3.325000000    -5.604000000
H    -5.377000000     3.851000000    -4.807000000
H    -4.601000000     2.881000000    -5.672000000
O    -3.259000000     1.796000000    -5.934000000
H    -3.001000000     1.877000000    -5.016000000
H    -2.541000000     2.203000000    -6.420000000
O    -3.342000000     7.194000000    -2.636000000
H    -3.228000000     7.285000000    -3.582000000
H    -2.536000000     6.771000000    -2.337000000
O    -0.292000000     2.511000000    -5.529000000
H     0.017000000     1.826000000    -6.121000000
H    -0.364000000     2.077000000    -4.678000000
O    -4.066000000     6.974000000     0.314000000
H    -4.865000000     7.017000000    -0.211000000
H    -3.682000000     6.125000000     0.096000000
O    -5.162000000     0.393000000    -7.504000000
H    -4.645000000     0.705000000    -6.762000000
H    -5.470000000    -0.472000000    -7.235000000
O     0.750000000     6.530000000    -4.413000000
H     0.363000000     6.601000000    -3.540000000
H     0.048000000     6.792000000    -5.008000000
O    -7.560000000     3.024000000    -2.693000000
H    -7.877000000     2.357000000    -3.304000000
H    -6.675000000     3.225000000    -2.996000000
O    -0.857000000     6.502000000    -1.825000000
H    -1.430000000     6.041000000    -1.213000000
H    -0.461000000     7.200000000    -1.303000000
O    -0.003000000     2.953000000     1.261000000
H     0.160000000     2.010000000     1.230000000
H     0.765000000     3.343000000     0.845000000
O    -7.589000000     4.826000000    -0.435000000
H    -7.974000000     3.956000000    -0.328000000
H    -6.774000000     4.670000000    -0.912000000
