215
-1480.02917
C    -1.707000000     2.789000000     3.511000000
H    -0.640000000     2.916000000     3.681000000
C    -2.286000000     1.521000000     3.539000000
C    -3.610000000     1.312000000     3.133000000
H    -4.168000000     0.410000000     3.367000000
C    -1.398000000     0.345000000     3.840000000
O    -0.384000000     0.640000000     4.714000000
H    -1.000000000    -0.037000000     2.888000000
O    -2.150000000    -0.803000000     4.343000000
C    -1.839000000    -1.996000000     3.722000000
C    -2.692000000    -2.390000000     2.789000000
H    -3.523000000    -1.729000000     2.559000000
C    -2.443000000    -3.574000000     2.080000000
O    -3.287000000    -3.760000000     1.048000000
C    -1.347000000    -4.353000000     2.318000000
C    -0.941000000    -5.518000000     1.336000000
H    -0.289000000    -6.187000000     1.900000000
C    -0.219000000    -4.959000000     0.067000000
C     1.153000000    -4.786000000     0.063000000
H     1.679000000    -4.972000000     0.997000000
H    -1.836000000    -6.096000000     1.095000000
C    -0.451000000    -3.929000000     3.317000000
H     0.343000000    -4.615000000     3.604000000
C    -0.687000000    -2.741000000     4.039000000
C     0.275000000    -2.217000000     5.053000000
H     0.724000000    -3.057000000     5.587000000
H    -0.209000000    -1.715000000     5.893000000
C     1.176000000    -1.230000000     4.442000000
C     2.410000000    -1.621000000     4.049000000
H     2.591000000    -2.690000000     4.129000000
C     0.837000000     0.153000000     4.323000000
C     1.754000000     1.069000000     3.806000000
H     1.425000000     2.105000000     3.838000000
C     2.998000000     0.655000000     3.374000000
O     3.821000000     1.630000000     2.931000000
C     4.005000000     1.837000000     1.498000000
C     4.060000000     3.263000000     0.985000000
C     4.808000000     3.612000000    -0.198000000
H     5.403000000     2.857000000    -0.705000000
C     3.315000000     4.257000000     1.619000000
H     2.843000000     3.996000000     2.562000000
O     5.040000000     0.980000000     1.024000000
H     3.124000000     1.343000000     1.063000000
C     3.304000000    -0.695000000     3.447000000
C     4.544000000    -1.297000000     2.845000000
H     4.712000000    -2.320000000     3.187000000
H     5.448000000    -0.733000000     3.084000000
C     4.425000000    -1.384000000     1.339000000
C     4.053000000    -2.620000000     0.825000000
H     3.857000000    -3.458000000     1.488000000
C     4.721000000    -0.262000000     0.471000000
C     4.476000000    -0.381000000    -0.851000000
H     4.644000000     0.317000000    -1.667000000
C     4.038000000    -1.609000000    -1.355000000
O     3.656000000    -1.667000000    -2.675000000
C     2.170000000    -1.655000000    -2.865000000
C     1.799000000    -0.618000000    -4.009000000
C     2.318000000     0.682000000    -4.052000000
H     3.085000000     1.029000000    -3.365000000
C     0.744000000    -0.984000000    -4.869000000
H     0.294000000    -1.958000000    -4.692000000
O     1.670000000    -3.015000000    -3.059000000
H     1.710000000    -1.318000000    -1.925000000
C     3.865000000    -2.763000000    -0.554000000
C     3.313000000    -4.091000000    -1.060000000
H     3.751000000    -4.910000000    -0.486000000
H     3.696000000    -4.259000000    -2.069000000
C     1.784000000    -4.242000000    -0.993000000
C     1.062000000    -3.758000000    -2.117000000
C    -0.313000000    -3.920000000    -2.094000000
H    -0.878000000    -3.444000000    -2.892000000
C    -0.989000000    -4.506000000    -0.985000000
O    -2.291000000    -4.399000000    -0.946000000
C    -2.881000000    -3.308000000    -0.270000000
H    -2.127000000    -2.508000000    -0.242000000
C    -3.981000000    -2.774000000    -1.117000000
C    -5.101000000    -2.267000000    -0.480000000
H    -5.182000000    -2.388000000     0.597000000
C    -3.866000000    -2.559000000    -2.499000000
H    -3.046000000    -3.019000000    -3.043000000
C    -4.898000000    -1.899000000    -3.239000000
O    -4.698000000    -1.676000000    -4.532000000
C    -6.062000000    -1.470000000    -2.580000000
H    -6.843000000    -1.007000000    -3.177000000
C    -6.175000000    -1.760000000    -1.199000000
O    -7.309000000    -1.354000000    -0.504000000
C    -7.251000000    -0.664000000     0.727000000
C    -6.551000000     0.521000000     0.737000000
H    -6.123000000     1.003000000    -0.138000000
C    -7.682000000    -1.269000000     1.827000000
H    -8.162000000    -2.244000000     1.796000000
C    -7.363000000    -0.732000000     3.073000000
H    -7.717000000    -1.291000000     3.935000000
C    -6.731000000     0.525000000     3.197000000
H    -6.506000000     0.993000000     4.152000000
C    -6.325000000     1.106000000     1.996000000
O    -5.570000000     2.245000000     2.083000000
C    -4.339000000     2.401000000     2.664000000
C    -3.816000000     3.679000000     2.663000000
H    -4.405000000     4.527000000     2.324000000
C    -2.500000000     3.881000000     3.021000000
O    -1.964000000     5.160000000     2.742000000
C    -0.703000000     5.545000000     3.194000000
C     0.356000000     5.790000000     2.261000000
H     0.172000000     5.722000000     1.192000000
C    -0.543000000     5.954000000     4.489000000
H    -1.380000000     5.919000000     5.183000000
C     0.702000000     6.506000000     4.943000000
H     0.902000000     6.711000000     5.991000000
C     1.732000000     6.661000000     4.084000000
H     2.675000000     7.072000000     4.436000000
C     1.604000000     6.221000000     2.742000000
O     2.574000000     6.546000000     1.861000000
C     3.221000000     5.542000000     1.121000000
C     3.799000000     5.839000000    -0.081000000
H     3.662000000     6.856000000    -0.439000000
C     4.626000000     4.885000000    -0.810000000
O     5.251000000     5.146000000    -1.988000000
C     5.117000000     4.294000000    -3.115000000
C     3.820000000     4.084000000    -3.683000000
H     2.996000000     4.617000000    -3.216000000
C     6.210000000     3.527000000    -3.553000000
H     7.191000000     3.685000000    -3.112000000
C     5.978000000     2.667000000    -4.675000000
H     6.749000000     2.046000000    -5.125000000
C     4.726000000     2.433000000    -5.195000000
H     4.574000000     1.721000000    -6.002000000
C     3.678000000     3.223000000    -4.712000000
O     2.376000000     2.842000000    -5.076000000
C     1.855000000     1.579000000    -4.978000000
C     0.898000000     1.136000000    -5.882000000
H     0.453000000     1.865000000    -6.553000000
C     0.290000000    -0.147000000    -5.819000000
O    -0.702000000    -0.432000000    -6.656000000
C    -1.584000000    -1.462000000    -6.417000000
C    -1.401000000    -2.783000000    -6.835000000
H    -0.551000000    -3.053000000    -7.457000000
C    -2.400000000    -3.717000000    -6.549000000
H    -2.319000000    -4.734000000    -6.925000000
C    -3.559000000    -3.347000000    -5.805000000
H    -4.382000000    -4.018000000    -5.575000000
C    -3.560000000    -2.071000000    -5.267000000
C    -2.563000000    -1.121000000    -5.557000000
H    -2.683000000    -0.092000000    -5.229000000
C    -0.071000000     1.649000000    -1.484000000
H     0.546000000     2.237000000    -2.159000000
C     0.589000000     0.781000000    -0.571000000
H     1.676000000     0.772000000    -0.528000000
C    -0.190000000     0.048000000     0.368000000
H     0.283000000    -0.526000000     1.158000000
C    -1.587000000     0.227000000     0.307000000
H    -2.215000000    -0.351000000     0.982000000
C    -2.166000000     1.053000000    -0.623000000
H    -3.232000000     1.193000000    -0.462000000
C    -1.438000000     1.761000000    -1.516000000
C    -2.080000000     2.656000000    -2.548000000
O    -3.276000000     2.617000000    -2.790000000
O    -1.388000000     3.361000000    -3.325000000
O    -4.514000000     4.464000000    -1.242000000
H    -4.077000000     3.792000000    -1.766000000
H    -3.798000000     4.973000000    -0.861000000
O    -1.667000000     6.470000000    -5.575000000
H    -1.850000000     7.303000000    -5.141000000
H    -0.831000000     6.186000000    -5.205000000
O    -2.122000000     5.888000000    -0.433000000
H    -1.835000000     6.173000000     0.434000000
H    -1.319000000     5.607000000    -0.871000000
O    -6.767000000     3.361000000    -6.671000000
H    -6.842000000     3.750000000    -5.800000000
H    -6.045000000     2.738000000    -6.594000000
O    -3.812000000     4.663000000    -4.818000000
H    -3.775000000     4.069000000    -4.068000000
H    -2.904000000     4.935000000    -4.953000000
O    -5.468000000     6.371000000    -3.030000000
H    -5.161000000     5.772000000    -3.710000000
H    -5.331000000     5.894000000    -2.211000000
O    -1.658000000     1.398000000    -8.636000000
H    -2.492000000     1.393000000    -9.107000000
H    -1.902000000     1.517000000    -7.718000000
O    -4.721000000     5.011000000    -7.613000000
H    -5.601000000     4.677000000    -7.786000000
H    -4.478000000     4.621000000    -6.773000000
O    -6.317000000     4.534000000     0.766000000
H    -6.104000000     3.730000000     1.241000000
H    -5.905000000     4.422000000    -0.091000000
O    -4.950000000     1.657000000    -4.697000000
H    -4.172000000     1.921000000    -4.207000000
H    -4.644000000     1.558000000    -5.598000000
O    -1.950000000     2.588000000    -6.093000000
H    -1.824000000     2.827000000    -5.175000000
H    -1.727000000     3.381000000    -6.580000000
O    -3.389000000     8.325000000    -4.330000000
H    -4.229000000     7.968000000    -4.045000000
H    -3.608000000     8.888000000    -5.073000000
O     0.310000000     4.836000000    -4.658000000
H     1.041000000     4.255000000    -4.867000000
H    -0.303000000     4.284000000    -4.172000000
O    -3.219000000     8.551000000    -1.477000000
H    -2.893000000     8.681000000    -2.368000000
H    -3.023000000     7.635000000    -1.281000000
O    -4.655000000     1.435000000    -7.401000000
H    -4.543000000     1.782000000    -8.287000000
H    -5.028000000     0.563000000    -7.531000000
O     1.013000000     7.086000000    -3.331000000
H     0.905000000     7.871000000    -3.867000000
H     0.702000000     6.371000000    -3.886000000
O    -6.422000000     2.212000000    -2.649000000
H    -6.031000000     1.892000000    -3.462000000
H    -5.776000000     2.826000000    -2.298000000
O    -1.030000000     4.748000000    -7.659000000
H    -1.335000000     5.564000000    -7.263000000
H    -0.080000000     4.767000000    -7.544000000
O     0.104000000     4.921000000    -1.598000000
H     0.356000000     5.720000000    -2.061000000
H    -0.287000000     4.366000000    -2.273000000
