215
-1462.93604
C    -2.132000000     3.479000000     3.792000000
H    -1.205000000     3.452000000     4.360000000
C    -2.716000000     2.215000000     3.562000000
C    -3.936000000     2.094000000     2.799000000
H    -4.402000000     1.112000000     2.772000000
C    -1.998000000     0.862000000     3.930000000
O    -1.123000000     0.998000000     5.056000000
H    -1.381000000     0.493000000     3.097000000
O    -2.988000000    -0.172000000     4.105000000
C    -2.724000000    -1.385000000     3.581000000
C    -3.489000000    -1.764000000     2.445000000
H    -4.204000000    -1.038000000     2.065000000
C    -3.119000000    -2.907000000     1.721000000
O    -3.724000000    -3.018000000     0.412000000
C    -2.072000000    -3.708000000     2.195000000
C    -1.733000000    -5.022000000     1.439000000
H    -1.312000000    -5.738000000     2.148000000
C    -0.637000000    -4.728000000     0.377000000
C     0.701000000    -5.067000000     0.591000000
H     0.973000000    -5.448000000     1.572000000
H    -2.602000000    -5.425000000     0.915000000
C    -1.384000000    -3.356000000     3.368000000
H    -0.695000000    -4.031000000     3.870000000
C    -1.730000000    -2.187000000     4.068000000
C    -0.954000000    -1.875000000     5.317000000
H    -0.557000000    -2.833000000     5.660000000
H    -1.671000000    -1.479000000     6.039000000
C     0.234000000    -0.942000000     4.999000000
C     1.446000000    -1.544000000     4.656000000
H     1.679000000    -2.605000000     4.628000000
C     0.076000000     0.397000000     4.936000000
C     1.093000000     1.256000000     4.580000000
H     0.986000000     2.337000000     4.634000000
C     2.282000000     0.722000000     4.111000000
O     3.133000000     1.514000000     3.329000000
C     3.118000000     1.368000000     1.936000000
C     3.191000000     2.699000000     1.267000000
C     3.467000000     2.698000000    -0.115000000
H     3.633000000     1.794000000    -0.695000000
C     2.845000000     3.860000000     1.911000000
H     2.641000000     3.844000000     2.979000000
O     4.241000000     0.587000000     1.549000000
H     2.236000000     0.832000000     1.554000000
C     2.465000000    -0.673000000     4.164000000
C     3.720000000    -1.259000000     3.680000000
H     4.188000000    -1.987000000     4.345000000
H     4.416000000    -0.429000000     3.819000000
C     3.794000000    -1.706000000     2.250000000
C     3.429000000    -3.012000000     1.867000000
H     3.030000000    -3.659000000     2.644000000
C     4.143000000    -0.793000000     1.343000000
C     4.251000000    -1.137000000    -0.045000000
H     4.561000000    -0.361000000    -0.739000000
C     3.959000000    -2.475000000    -0.421000000
O     3.937000000    -2.648000000    -1.795000000
C     2.690000000    -2.603000000    -2.467000000
C     2.795000000    -1.872000000    -3.824000000
C     3.840000000    -0.963000000    -4.080000000
H     4.635000000    -0.858000000    -3.346000000
C     1.828000000    -2.056000000    -4.850000000
H     1.033000000    -2.781000000    -4.696000000
O     2.126000000    -3.993000000    -2.568000000
H     2.023000000    -2.022000000    -1.812000000
C     3.508000000    -3.423000000     0.500000000
C     3.081000000    -4.812000000     0.066000000
H     3.195000000    -5.541000000     0.871000000
H     3.726000000    -5.166000000    -0.741000000
C     1.654000000    -4.795000000    -0.372000000
C     1.253000000    -4.343000000    -1.633000000
C    -0.114000000    -4.063000000    -1.852000000
H    -0.516000000    -3.741000000    -2.809000000
C    -1.055000000    -4.398000000    -0.898000000
O    -2.376000000    -4.068000000    -1.271000000
C    -2.898000000    -2.784000000    -0.783000000
H    -2.066000000    -2.193000000    -0.374000000
C    -3.638000000    -2.073000000    -1.878000000
C    -4.587000000    -1.143000000    -1.502000000
H    -4.857000000    -1.002000000    -0.458000000
C    -3.330000000    -2.199000000    -3.289000000
H    -2.545000000    -2.922000000    -3.495000000
C    -3.942000000    -1.326000000    -4.192000000
O    -3.478000000    -1.182000000    -5.510000000
C    -4.908000000    -0.442000000    -3.777000000
H    -5.432000000     0.238000000    -4.443000000
C    -5.296000000    -0.391000000    -2.458000000
O    -6.328000000     0.423000000    -2.053000000
C    -6.458000000     0.683000000    -0.712000000
C    -5.951000000     1.838000000    -0.221000000
H    -5.261000000     2.385000000    -0.858000000
C    -7.236000000    -0.177000000     0.079000000
H    -7.621000000    -1.101000000    -0.343000000
C    -7.420000000     0.071000000     1.421000000
H    -7.975000000    -0.644000000     2.022000000
C    -6.959000000     1.285000000     1.911000000
H    -7.179000000     1.547000000     2.942000000
C    -6.147000000     2.139000000     1.075000000
O    -5.567000000     3.319000000     1.508000000
C    -4.433000000     3.309000000     2.278000000
C    -3.817000000     4.522000000     2.474000000
H    -4.225000000     5.398000000     1.977000000
C    -2.704000000     4.641000000     3.281000000
O    -2.158000000     5.863000000     3.496000000
C    -0.871000000     6.203000000     3.618000000
C     0.002000000     5.968000000     2.585000000
H    -0.366000000     5.616000000     1.625000000
C    -0.404000000     6.780000000     4.789000000
H    -1.154000000     7.104000000     5.506000000
C     0.877000000     7.361000000     4.831000000
H     1.184000000     7.955000000     5.689000000
C     1.758000000     7.110000000     3.793000000
H     2.770000000     7.506000000     3.759000000
C     1.320000000     6.378000000     2.669000000
O     2.209000000     6.173000000     1.610000000
C     2.688000000     5.017000000     1.108000000
C     3.058000000     5.068000000    -0.215000000
H     2.921000000     5.987000000    -0.778000000
C     3.345000000     3.860000000    -0.805000000
O     3.488000000     3.845000000    -2.160000000
C     4.468000000     3.174000000    -2.871000000
C     4.061000000     2.322000000    -3.919000000
H     3.006000000     2.126000000    -4.092000000
C     5.775000000     3.472000000    -2.608000000
H     5.966000000     4.164000000    -1.792000000
C     6.725000000     2.799000000    -3.365000000
H     7.778000000     2.954000000    -3.145000000
C     6.384000000     1.921000000    -4.338000000
H     7.100000000     1.417000000    -4.983000000
C     5.048000000     1.643000000    -4.602000000
O     4.719000000     0.782000000    -5.592000000
C     3.839000000    -0.199000000    -5.322000000
C     2.884000000    -0.406000000    -6.321000000
H     3.011000000     0.151000000    -7.247000000
C     1.895000000    -1.388000000    -6.095000000
O     1.002000000    -1.582000000    -7.108000000
C    -0.226000000    -2.171000000    -6.924000000
C    -0.423000000    -3.527000000    -7.095000000
H     0.283000000    -4.245000000    -7.505000000
C    -1.627000000    -4.149000000    -6.654000000
H    -1.685000000    -5.234000000    -6.699000000
C    -2.682000000    -3.320000000    -6.138000000
H    -3.613000000    -3.702000000    -5.726000000
C    -2.425000000    -1.986000000    -5.940000000
C    -1.250000000    -1.402000000    -6.410000000
H    -1.059000000    -0.376000000    -6.103000000
C    -0.306000000     1.075000000    -2.318000000
H     0.125000000     1.316000000    -3.286000000
C     0.465000000     0.423000000    -1.415000000
H     1.504000000     0.171000000    -1.610000000
C     0.019000000     0.108000000    -0.190000000
H     0.675000000    -0.332000000     0.570000000
C    -1.294000000     0.420000000     0.144000000
H    -1.828000000     0.051000000     1.016000000
C    -2.140000000     1.034000000    -0.734000000
H    -3.164000000     1.224000000    -0.423000000
C    -1.650000000     1.384000000    -1.957000000
C    -2.501000000     2.188000000    -2.959000000
O    -3.450000000     2.839000000    -2.589000000
O    -2.039000000     2.387000000    -4.031000000
O    -3.846000000     4.526000000    -0.844000000
H    -3.856000000     3.921000000    -1.585000000
H    -3.005000000     4.366000000    -0.415000000
O    -7.249000000     2.222000000    -5.765000000
H    -6.350000000     2.308000000    -6.083000000
H    -7.791000000     2.323000000    -6.547000000
O    -0.034000000     4.170000000    -3.852000000
H    -0.572000000     3.383000000    -3.937000000
H     0.738000000     3.991000000    -4.389000000
O     1.613000000     6.410000000    -3.786000000
H     1.072000000     6.905000000    -3.170000000
H     1.199000000     5.548000000    -3.828000000
O     0.144000000     6.693000000    -1.171000000
H    -0.372000000     7.055000000    -0.451000000
H     0.146000000     5.749000000    -1.012000000
O    -3.081000000     4.756000000    -5.295000000
H    -2.623000000     4.108000000    -4.760000000
H    -3.310000000     5.455000000    -4.683000000
O    -1.238000000     5.569000000    -7.302000000
H    -2.019000000     5.552000000    -6.748000000
H    -0.783000000     6.372000000    -7.050000000
O    -4.302000000     7.151000000    -7.049000000
H    -4.039000000     6.468000000    -6.432000000
H    -4.718000000     7.818000000    -6.503000000
O    -6.830000000     6.594000000    -2.475000000
H    -7.691000000     6.602000000    -2.893000000
H    -6.555000000     5.678000000    -2.510000000
O    -4.166000000     2.170000000    -5.959000000
H    -3.585000000     1.668000000    -5.387000000
H    -3.857000000     3.073000000    -5.881000000
O    -4.772000000     7.151000000    -4.254000000
H    -4.069000000     7.603000000    -3.788000000
H    -5.512000000     7.168000000    -3.647000000
O    -0.561000000     2.107000000    -6.365000000
H    -1.068000000     2.000000000    -7.170000000
H    -1.209000000     2.042000000    -5.664000000
O    -4.628000000     7.321000000    -0.023000000
H    -3.748000000     7.399000000     0.345000000
H    -4.573000000     6.573000000    -0.618000000
O    -5.930000000    -0.396000000    -7.003000000
H    -6.350000000     0.409000000    -6.699000000
H    -5.071000000    -0.391000000    -6.582000000
O    -8.389000000     3.111000000    -2.295000000
H    -8.090000000     2.205000000    -2.374000000
H    -7.706000000     3.626000000    -2.724000000
O     1.818000000     3.877000000    -5.837000000
H     2.518000000     3.757000000    -6.479000000
H     1.090000000     3.356000000    -6.176000000
O    -6.058000000     3.936000000    -3.556000000
H    -5.125000000     3.815000000    -3.378000000
H    -6.287000000     3.207000000    -4.133000000
O    -4.675000000     2.774000000    -8.703000000
H    -4.041000000     2.545000000    -8.024000000
H    -4.852000000     1.948000000    -9.154000000
O    -0.675000000     4.022000000    -1.050000000
H    -0.711000000     3.073000000    -0.932000000
H    -0.409000000     4.140000000    -1.962000000
