215
-1471.66966
C    -2.130000000     3.322000000     3.395000000
H    -1.200000000     3.508000000     3.927000000
C    -2.639000000     2.098000000     3.299000000
C    -3.761000000     1.843000000     2.492000000
H    -4.058000000     0.807000000     2.353000000
C    -1.820000000     0.906000000     3.843000000
O    -0.871000000     1.290000000     4.805000000
H    -1.163000000     0.532000000     3.043000000
O    -2.684000000    -0.235000000     4.266000000
C    -2.239000000    -1.518000000     3.815000000
C    -3.022000000    -2.160000000     2.842000000
H    -4.012000000    -1.751000000     2.660000000
C    -2.643000000    -3.384000000     2.320000000
O    -3.307000000    -3.824000000     1.218000000
C    -1.423000000    -3.938000000     2.673000000
C    -0.795000000    -5.141000000     1.930000000
H    -0.152000000    -5.753000000     2.566000000
C     0.056000000    -4.743000000     0.737000000
C     1.449000000    -4.708000000     0.813000000
H     1.961000000    -5.025000000     1.718000000
H    -1.622000000    -5.807000000     1.678000000
C    -0.665000000    -3.370000000     3.686000000
H     0.244000000    -3.856000000     4.031000000
C    -1.055000000    -2.104000000     4.215000000
C    -0.176000000    -1.455000000     5.301000000
H     0.357000000    -2.229000000     5.857000000
H    -0.764000000    -0.968000000     6.083000000
C     0.811000000    -0.424000000     4.762000000
C     2.146000000    -0.845000000     4.512000000
H     2.344000000    -1.889000000     4.741000000
C     0.419000000     0.910000000     4.533000000
C     1.282000000     1.823000000     4.024000000
H     0.855000000     2.779000000     3.733000000
C     2.562000000     1.385000000     3.654000000
O     3.309000000     2.160000000     2.909000000
C     3.337000000     1.998000000     1.447000000
C     3.195000000     3.330000000     0.704000000
C     3.598000000     3.444000000    -0.629000000
H     4.217000000     2.654000000    -1.046000000
C     2.629000000     4.384000000     1.401000000
H     2.337000000     4.464000000     2.445000000
O     4.549000000     1.314000000     1.192000000
H     2.530000000     1.414000000     0.980000000
C     3.031000000     0.091000000     3.954000000
C     4.377000000    -0.426000000     3.428000000
H     4.609000000    -1.265000000     4.087000000
H     5.186000000     0.275000000     3.642000000
C     4.273000000    -0.954000000     1.967000000
C     4.049000000    -2.388000000     1.651000000
H     3.966000000    -3.040000000     2.516000000
C     4.428000000    -0.040000000     0.936000000
C     4.305000000    -0.402000000    -0.360000000
H     4.388000000     0.386000000    -1.105000000
C     4.136000000    -1.742000000    -0.725000000
O     3.938000000    -2.137000000    -2.032000000
C     2.624000000    -2.373000000    -2.582000000
C     2.376000000    -1.613000000    -3.906000000
C     3.285000000    -0.672000000    -4.483000000
H     4.183000000    -0.458000000    -3.908000000
C     1.226000000    -1.904000000    -4.633000000
H     0.531000000    -2.655000000    -4.266000000
O     2.310000000    -3.806000000    -2.657000000
H     1.983000000    -1.938000000    -1.801000000
C     4.019000000    -2.778000000     0.325000000
C     3.714000000    -4.225000000    -0.154000000
H     4.008000000    -5.005000000     0.551000000
H     4.249000000    -4.455000000    -1.077000000
C     2.215000000    -4.403000000    -0.312000000
C     1.564000000    -4.177000000    -1.549000000
C     0.183000000    -4.114000000    -1.599000000
H    -0.359000000    -3.875000000    -2.511000000
C    -0.538000000    -4.445000000    -0.503000000
O    -1.910000000    -4.624000000    -0.562000000
C    -2.685000000    -3.483000000    -0.015000000
H    -1.888000000    -2.754000000     0.190000000
C    -3.657000000    -2.955000000    -1.122000000
C    -4.715000000    -2.120000000    -0.728000000
H    -4.785000000    -1.907000000     0.336000000
C    -3.535000000    -3.291000000    -2.499000000
H    -2.739000000    -3.954000000    -2.829000000
C    -4.414000000    -2.725000000    -3.437000000
O    -4.365000000    -3.119000000    -4.744000000
C    -5.552000000    -2.018000000    -3.015000000
H    -6.344000000    -1.835000000    -3.736000000
C    -5.658000000    -1.654000000    -1.678000000
O    -6.941000000    -1.146000000    -1.276000000
C    -7.152000000    -0.208000000    -0.289000000
C    -6.210000000     0.827000000    -0.108000000
H    -5.376000000     1.032000000    -0.774000000
C    -8.105000000    -0.474000000     0.719000000
H    -8.656000000    -1.408000000     0.638000000
C    -8.101000000     0.326000000     1.841000000
H    -8.636000000     0.049000000     2.746000000
C    -7.250000000     1.441000000     1.959000000
H    -7.181000000     2.027000000     2.871000000
C    -6.310000000     1.713000000     0.953000000
O    -5.409000000     2.787000000     0.989000000
C    -4.423000000     2.913000000     1.905000000
C    -3.886000000     4.215000000     2.042000000
H    -4.349000000     5.023000000     1.480000000
C    -2.809000000     4.464000000     2.903000000
O    -2.455000000     5.782000000     3.207000000
C    -1.090000000     6.031000000     3.526000000
C    -0.300000000     6.240000000     2.415000000
H    -0.680000000     6.101000000     1.406000000
C    -0.570000000     6.396000000     4.752000000
H    -1.164000000     6.397000000     5.662000000
C     0.714000000     6.837000000     4.928000000
H     1.093000000     7.235000000     5.866000000
C     1.544000000     6.819000000     3.753000000
H     2.611000000     7.026000000     3.747000000
C     1.064000000     6.486000000     2.492000000
O     1.845000000     6.665000000     1.348000000
C     2.386000000     5.589000000     0.674000000
C     2.560000000     5.606000000    -0.702000000
H     2.191000000     6.487000000    -1.220000000
C     3.295000000     4.571000000    -1.320000000
O     3.568000000     4.663000000    -2.673000000
C     4.379000000     3.838000000    -3.421000000
C     3.732000000     2.818000000    -4.187000000
H     2.648000000     2.889000000    -4.212000000
C     5.770000000     3.840000000    -3.461000000
H     6.290000000     4.543000000    -2.816000000
C     6.492000000     2.975000000    -4.260000000
H     7.578000000     3.005000000    -4.282000000
C     5.836000000     2.154000000    -5.154000000
H     6.380000000     1.697000000    -5.977000000
C     4.464000000     1.995000000    -5.029000000
O     3.835000000     1.177000000    -5.989000000
C     2.996000000     0.112000000    -5.584000000
C     1.849000000    -0.190000000    -6.316000000
H     1.563000000     0.425000000    -7.166000000
C     0.944000000    -1.132000000    -5.807000000
O    -0.196000000    -1.390000000    -6.571000000
C    -1.119000000    -2.464000000    -6.349000000
C    -0.705000000    -3.767000000    -6.661000000
H     0.292000000    -3.873000000    -7.080000000
C    -1.432000000    -4.831000000    -6.179000000
H    -1.153000000    -5.874000000    -6.306000000
C    -2.704000000    -4.596000000    -5.572000000
H    -3.318000000    -5.448000000    -5.291000000
C    -3.169000000    -3.281000000    -5.369000000
C    -2.363000000    -2.224000000    -5.774000000
H    -2.688000000    -1.206000000    -5.577000000
C    -0.404000000     0.560000000    -2.752000000
H    -0.049000000     0.735000000    -3.764000000
C     0.574000000     0.305000000    -1.792000000
H     1.624000000     0.315000000    -2.074000000
C     0.258000000     0.038000000    -0.489000000
H     1.054000000    -0.136000000     0.212000000
C    -1.080000000    -0.176000000    -0.145000000
H    -1.321000000    -0.592000000     0.830000000
C    -2.097000000     0.199000000    -1.093000000
H    -3.162000000     0.157000000    -0.880000000
C    -1.763000000     0.528000000    -2.422000000
C    -2.849000000     1.001000000    -3.387000000
O    -3.995000000     1.060000000    -3.068000000
O    -2.472000000     1.461000000    -4.435000000
O    -4.381000000     3.321000000    -1.856000000
H    -4.176000000     2.491000000    -2.287000000
H    -5.208000000     3.157000000    -1.402000000
O    -7.502000000     1.829000000    -7.866000000
H    -6.776000000     2.401000000    -7.618000000
H    -7.265000000     1.506000000    -8.736000000
O    -7.895000000     0.061000000    -5.400000000
H    -7.642000000    -0.466000000    -6.158000000
H    -8.064000000     0.932000000    -5.760000000
O    -0.714000000     5.314000000    -2.155000000
H    -0.796000000     4.643000000    -1.478000000
H    -1.113000000     4.921000000    -2.932000000
O    -1.315000000     6.307000000    -6.379000000
H    -0.524000000     5.910000000    -6.014000000
H    -2.015000000     5.693000000    -6.160000000
O    -2.321000000     4.184000000    -4.657000000
H    -3.204000000     4.119000000    -5.022000000
H    -2.078000000     3.280000000    -4.458000000
O    -2.327000000    -0.252000000    -9.596000000
H    -2.872000000    -0.123000000    -8.820000000
H    -2.920000000    -0.103000000   -10.332000000
O    -5.179000000     3.232000000    -7.134000000
H    -5.632000000     3.592000000    -6.372000000
H    -4.786000000     3.994000000    -7.561000000
O    -6.835000000     5.433000000    -0.243000000
H    -7.082000000     4.658000000    -0.748000000
H    -5.906000000     5.559000000    -0.438000000
O    -7.384000000     3.601000000    -2.127000000
H    -7.749000000     4.217000000    -2.761000000
H    -6.927000000     2.950000000    -2.660000000
O    -3.730000000     0.652000000    -7.011000000
H    -3.325000000     0.772000000    -6.152000000
H    -4.300000000     1.414000000    -7.116000000
O    -5.416000000     4.805000000    -4.670000000
H    -5.033000000     4.778000000    -3.793000000
H    -6.285000000     4.419000000    -4.564000000
O    -0.283000000     2.268000000    -5.917000000
H    -0.355000000     1.975000000    -6.826000000
H    -1.016000000     1.845000000    -5.471000000
O    -3.948000000     6.026000000    -0.875000000
H    -3.299000000     6.499000000    -1.396000000
H    -3.861000000     5.115000000    -1.154000000
O    -0.563000000     1.852000000    -8.579000000
H    -0.691000000     0.955000000    -8.889000000
H    -1.226000000     2.363000000    -9.043000000
O    -4.693000000    -1.725000000    -7.966000000
H    -4.321000000    -0.886000000    -7.695000000
H    -3.933000000    -2.263000000    -8.188000000
O     0.817000000     4.719000000    -5.587000000
H     1.375000000     4.413000000    -6.301000000
H     0.447000000     3.920000000    -5.212000000
O    -6.323000000     1.718000000    -3.863000000
H    -6.896000000     0.995000000    -4.116000000
H    -5.491000000     1.298000000    -3.642000000
O    -1.617000000     3.404000000    -0.417000000
H    -2.487000000     3.421000000    -0.816000000
H    -1.339000000     2.491000000    -0.489000000
