215
-1459.83284
C    -1.722000000     3.576000000     3.506000000
H    -0.679000000     3.739000000     3.765000000
C    -2.273000000     2.286000000     3.504000000
C    -3.693000000     2.222000000     3.230000000
H    -4.193000000     1.258000000     3.271000000
C    -1.388000000     1.091000000     3.681000000
O    -0.365000000     1.367000000     4.663000000
H    -0.881000000     0.793000000     2.752000000
O    -2.178000000     0.019000000     4.130000000
C    -2.006000000    -1.313000000     3.778000000
C    -2.840000000    -1.825000000     2.776000000
H    -3.711000000    -1.306000000     2.385000000
C    -2.571000000    -3.053000000     2.192000000
O    -3.368000000    -3.486000000     1.096000000
C    -1.451000000    -3.813000000     2.576000000
C    -1.157000000    -5.042000000     1.800000000
H    -0.571000000    -5.623000000     2.515000000
C    -0.391000000    -4.812000000     0.559000000
C     1.060000000    -4.941000000     0.612000000
H     1.660000000    -5.174000000     1.489000000
H    -2.004000000    -5.674000000     1.522000000
C    -0.693000000    -3.444000000     3.638000000
H     0.113000000    -4.047000000     4.049000000
C    -1.026000000    -2.197000000     4.314000000
C    -0.074000000    -1.607000000     5.312000000
H     0.325000000    -2.404000000     5.943000000
H    -0.639000000    -0.990000000     6.014000000
C     0.986000000    -0.680000000     4.724000000
C     2.084000000    -1.323000000     4.235000000
H     2.163000000    -2.399000000     4.366000000
C     0.868000000     0.760000000     4.550000000
C     1.878000000     1.428000000     3.961000000
H     1.794000000     2.479000000     3.697000000
C     2.937000000     0.729000000     3.406000000
O     3.953000000     1.535000000     2.813000000
C     3.698000000     1.539000000     1.394000000
C     3.769000000     2.894000000     0.728000000
C     4.180000000     3.029000000    -0.621000000
H     4.490000000     2.159000000    -1.194000000
C     3.226000000     3.950000000     1.472000000
H     2.796000000     3.736000000     2.447000000
O     4.696000000     0.748000000     0.727000000
H     2.734000000     1.067000000     1.152000000
C     3.073000000    -0.670000000     3.545000000
C     4.350000000    -1.325000000     2.985000000
H     4.594000000    -2.252000000     3.509000000
H     5.202000000    -0.650000000     3.089000000
C     4.241000000    -1.587000000     1.561000000
C     3.994000000    -2.920000000     1.156000000
H     3.908000000    -3.695000000     1.913000000
C     4.378000000    -0.584000000     0.533000000
C     4.201000000    -0.866000000    -0.823000000
H     4.200000000     0.016000000    -1.458000000
C     3.836000000    -2.177000000    -1.169000000
O     3.614000000    -2.440000000    -2.459000000
C     2.221000000    -2.501000000    -2.961000000
C     2.148000000    -1.865000000    -4.316000000
C     2.818000000    -0.628000000    -4.521000000
H     3.603000000    -0.292000000    -3.848000000
C     1.143000000    -2.270000000    -5.129000000
H     0.560000000    -3.146000000    -4.858000000
O     1.700000000    -3.917000000    -2.927000000
H     1.617000000    -1.883000000    -2.280000000
C     3.791000000    -3.213000000    -0.193000000
C     3.248000000    -4.603000000    -0.520000000
H     3.775000000    -5.329000000     0.102000000
H     3.545000000    -4.883000000    -1.533000000
C     1.746000000    -4.682000000    -0.570000000
C     1.070000000    -4.333000000    -1.785000000
C    -0.319000000    -4.297000000    -1.826000000
H    -0.840000000    -4.056000000    -2.748000000
C    -0.999000000    -4.502000000    -0.663000000
O    -2.395000000    -4.266000000    -0.782000000
C    -2.743000000    -3.095000000    -0.184000000
H    -1.873000000    -2.507000000     0.143000000
C    -3.671000000    -2.150000000    -0.984000000
C    -4.677000000    -1.409000000    -0.393000000
H    -4.929000000    -1.414000000     0.664000000
C    -3.374000000    -1.995000000    -2.320000000
H    -2.418000000    -2.336000000    -2.708000000
C    -4.335000000    -1.335000000    -3.111000000
O    -4.157000000    -1.285000000    -4.477000000
C    -5.457000000    -0.839000000    -2.546000000
H    -6.220000000    -0.314000000    -3.114000000
C    -5.664000000    -0.844000000    -1.173000000
O    -6.744000000    -0.108000000    -0.800000000
C    -6.950000000     0.469000000     0.447000000
C    -6.194000000     1.539000000     0.841000000
H    -5.570000000     1.967000000     0.060000000
C    -7.768000000    -0.167000000     1.319000000
H    -8.357000000    -1.050000000     1.085000000
C    -7.877000000     0.273000000     2.649000000
H    -8.402000000    -0.269000000     3.431000000
C    -7.125000000     1.369000000     3.043000000
H    -7.145000000     1.709000000     4.075000000
C    -6.296000000     2.056000000     2.117000000
O    -5.754000000     3.242000000     2.531000000
C    -4.446000000     3.360000000     2.948000000
C    -3.793000000     4.582000000     2.845000000
H    -4.333000000     5.433000000     2.438000000
C    -2.477000000     4.701000000     3.139000000
O    -1.953000000     5.968000000     3.003000000
C    -0.598000000     6.297000000     3.258000000
C     0.310000000     6.192000000     2.232000000
H    -0.071000000     6.042000000     1.225000000
C    -0.189000000     6.451000000     4.517000000
H    -0.929000000     6.356000000     5.309000000
C     1.133000000     6.615000000     4.793000000
H     1.443000000     6.864000000     5.805000000
C     2.104000000     6.624000000     3.739000000
H     3.165000000     6.810000000     3.882000000
C     1.691000000     6.250000000     2.492000000
O     2.638000000     6.272000000     1.489000000
C     3.073000000     5.191000000     0.828000000
C     3.531000000     5.345000000    -0.472000000
H     3.272000000     6.295000000    -0.933000000
C     4.023000000     4.260000000    -1.218000000
O     4.287000000     4.453000000    -2.500000000
C     4.655000000     3.496000000    -3.344000000
C     3.692000000     3.008000000    -4.215000000
H     2.683000000     3.411000000    -4.251000000
C     5.924000000     3.024000000    -3.449000000
H     6.782000000     3.439000000    -2.927000000
C     6.183000000     2.071000000    -4.475000000
H     7.221000000     1.750000000    -4.504000000
C     5.227000000     1.458000000    -5.275000000
H     5.481000000     0.710000000    -6.021000000
C     3.942000000     1.998000000    -5.150000000
O     2.977000000     1.393000000    -5.902000000
C     2.409000000     0.145000000    -5.578000000
C     1.500000000    -0.359000000    -6.500000000
H     1.190000000     0.266000000    -7.334000000
C     0.772000000    -1.526000000    -6.250000000
O    -0.179000000    -1.930000000    -7.096000000
C    -1.375000000    -2.409000000    -6.575000000
C    -1.809000000    -3.707000000    -6.956000000
H    -1.111000000    -4.322000000    -7.518000000
C    -2.987000000    -4.227000000    -6.447000000
H    -3.328000000    -5.225000000    -6.711000000
C    -3.708000000    -3.466000000    -5.528000000
H    -4.617000000    -3.838000000    -5.063000000
C    -3.299000000    -2.180000000    -5.118000000
C    -2.186000000    -1.641000000    -5.721000000
H    -1.835000000    -0.654000000    -5.430000000
C    -0.266000000     1.030000000    -2.414000000
H     0.230000000     1.016000000    -3.382000000
C     0.421000000     0.713000000    -1.248000000
H     1.450000000     0.402000000    -1.407000000
C    -0.235000000     0.858000000     0.016000000
H     0.354000000     0.672000000     0.970000000
C    -1.595000000     1.078000000     0.089000000
H    -2.152000000     1.013000000     1.020000000
C    -2.262000000     1.440000000    -1.086000000
H    -3.295000000     1.774000000    -1.024000000
C    -1.621000000     1.447000000    -2.318000000
C    -2.282000000     2.010000000    -3.546000000
O    -3.397000000     2.508000000    -3.535000000
O    -1.606000000     2.105000000    -4.565000000
O    -4.914000000     4.088000000    -2.134000000
H    -4.305000000     3.534000000    -2.621000000
H    -4.733000000     3.893000000    -1.215000000
O    -0.356000000     5.884000000    -7.877000000
H     0.137000000     6.626000000    -7.527000000
H    -0.123000000     5.152000000    -7.306000000
O    -2.483000000     4.614000000    -0.186000000
H    -2.549000000     4.468000000     0.758000000
H    -1.623000000     4.267000000    -0.423000000
O    -6.706000000     3.734000000    -6.855000000
H    -5.772000000     3.925000000    -6.769000000
H    -6.737000000     2.866000000    -7.256000000
O    -2.603000000     5.083000000    -4.634000000
H    -1.675000000     5.081000000    -4.399000000
H    -2.888000000     4.180000000    -4.493000000
O    -2.385000000     0.956000000    -9.298000000
H    -2.364000000     0.014000000    -9.127000000
H    -2.716000000     1.340000000    -8.486000000
O    -2.912000000     4.823000000    -7.356000000
H    -3.086000000     5.244000000    -6.514000000
H    -2.064000000     5.173000000    -7.628000000
O    -6.677000000     5.217000000     0.435000000
H    -6.523000000     5.860000000     1.127000000
H    -6.007000000     5.408000000    -0.222000000
O    -5.329000000     1.972000000    -9.024000000
H    -4.501000000     1.498000000    -8.946000000
H    -5.140000000     2.685000000    -9.634000000
O    -5.134000000     1.420000000    -5.143000000
H    -4.461000000     1.548000000    -4.476000000
H    -4.658000000     1.452000000    -5.973000000
O    -2.983000000     1.922000000    -6.775000000
H    -2.628000000     1.978000000    -5.887000000
H    -2.908000000     2.811000000    -7.120000000
O    -3.099000000     7.677000000    -4.415000000
H    -3.057000000     6.721000000    -4.428000000
H    -3.353000000     7.918000000    -5.306000000
O    -0.176000000     3.584000000    -6.419000000
H     0.432000000     3.398000000    -5.703000000
H    -0.991000000     3.156000000    -6.158000000
O    -2.648000000     7.265000000    -1.255000000
H    -2.865000000     7.229000000    -2.186000000
H    -2.661000000     6.351000000    -0.970000000
O    -6.507000000    -0.520000000    -6.714000000
H    -6.027000000     0.024000000    -6.090000000
H    -6.581000000    -1.372000000    -6.283000000
O     0.365000000     5.748000000    -3.766000000
H     0.579000000     6.200000000    -2.950000000
H     0.534000000     6.397000000    -4.450000000
O    -6.990000000     2.514000000    -3.467000000
H    -6.439000000     2.213000000    -4.190000000
H    -6.408000000     3.052000000    -2.931000000
O     0.304000000     7.058000000    -1.486000000
H     0.897000000     7.633000000    -1.004000000
H    -0.567000000     7.418000000    -1.320000000
O    -0.130000000     4.103000000    -0.803000000
H     0.657000000     4.499000000    -1.178000000
H    -0.411000000     3.463000000    -1.458000000
