215
-1437.84732
C    -1.606000000     3.516000000     3.551000000
H    -0.663000000     3.351000000     4.065000000
C    -2.519000000     2.515000000     3.253000000
C    -3.709000000     2.765000000     2.643000000
H    -4.442000000     1.989000000     2.435000000
C    -2.134000000     1.089000000     3.469000000
O    -1.108000000     0.968000000     4.505000000
H    -1.883000000     0.594000000     2.520000000
O    -3.255000000     0.313000000     4.032000000
C    -3.405000000    -0.966000000     3.558000000
C    -4.040000000    -1.158000000     2.366000000
H    -4.516000000    -0.296000000     1.905000000
C    -3.982000000    -2.349000000     1.630000000
O    -4.417000000    -2.208000000     0.282000000
C    -3.136000000    -3.392000000     2.091000000
C    -2.730000000    -4.593000000     1.231000000
H    -2.490000000    -5.506000000     1.780000000
C    -1.644000000    -4.356000000     0.213000000
C    -0.360000000    -4.767000000     0.480000000
H    -0.087000000    -5.095000000     1.480000000
H    -3.612000000    -4.902000000     0.667000000
C    -2.408000000    -3.217000000     3.306000000
H    -1.623000000    -3.961000000     3.421000000
C    -2.523000000    -1.990000000     4.012000000
C    -1.482000000    -1.830000000     5.126000000
H    -1.348000000    -2.853000000     5.481000000
H    -1.944000000    -1.215000000     5.901000000
C    -0.178000000    -1.242000000     4.594000000
C     0.882000000    -2.039000000     4.398000000
H     0.756000000    -3.118000000     4.444000000
C    -0.072000000     0.142000000     4.342000000
C     1.120000000     0.663000000     3.823000000
H     1.209000000     1.717000000     3.573000000
C     2.234000000    -0.146000000     3.673000000
O     3.381000000     0.457000000     3.141000000
C     3.679000000     0.451000000     1.732000000
C     4.064000000     1.784000000     1.181000000
C     4.771000000     1.888000000    -0.047000000
H     5.051000000     0.917000000    -0.446000000
C     3.446000000     2.962000000     1.722000000
H     2.848000000     3.000000000     2.629000000
O     4.649000000    -0.615000000     1.503000000
H     2.745000000     0.329000000     1.163000000
C     2.175000000    -1.555000000     3.957000000
C     3.372000000    -2.390000000     3.700000000
H     3.292000000    -3.326000000     4.256000000
H     4.295000000    -1.871000000     3.970000000
C     3.557000000    -2.668000000     2.175000000
C     2.984000000    -3.869000000     1.687000000
H     2.522000000    -4.568000000     2.380000000
C     4.165000000    -1.849000000     1.219000000
C     4.167000000    -2.143000000    -0.159000000
H     4.769000000    -1.528000000    -0.823000000
C     3.483000000    -3.241000000    -0.626000000
O     3.373000000    -3.460000000    -1.924000000
C     2.173000000    -3.013000000    -2.596000000
C     2.472000000    -2.271000000    -3.874000000
C     3.677000000    -1.517000000    -4.012000000
H     4.469000000    -1.648000000    -3.279000000
C     1.547000000    -2.174000000    -4.906000000
H     0.637000000    -2.762000000    -4.985000000
O     1.265000000    -4.136000000    -2.746000000
H     1.829000000    -2.297000000    -1.835000000
C     2.867000000    -4.106000000     0.305000000
C     2.013000000    -5.298000000    -0.115000000
H     1.945000000    -6.109000000     0.612000000
H     2.491000000    -5.811000000    -0.952000000
C     0.637000000    -4.727000000    -0.461000000
C     0.321000000    -4.224000000    -1.804000000
C    -0.940000000    -3.689000000    -2.039000000
H    -1.224000000    -3.227000000    -2.982000000
C    -1.859000000    -3.659000000    -0.978000000
O    -3.063000000    -3.005000000    -1.356000000
C    -3.474000000    -1.819000000    -0.749000000
H    -2.619000000    -1.219000000    -0.405000000
C    -4.082000000    -0.914000000    -1.751000000
C    -5.234000000    -0.205000000    -1.475000000
H    -5.731000000    -0.297000000    -0.512000000
C    -3.429000000    -0.747000000    -3.027000000
H    -2.557000000    -1.317000000    -3.338000000
C    -4.010000000     0.208000000    -3.938000000
O    -3.473000000     0.364000000    -5.271000000
C    -5.086000000     1.017000000    -3.533000000
H    -5.399000000     1.772000000    -4.250000000
C    -5.627000000     0.850000000    -2.265000000
O    -6.707000000     1.657000000    -1.879000000
C    -6.861000000     2.076000000    -0.593000000
C    -6.025000000     3.093000000    -0.171000000
H    -5.250000000     3.475000000    -0.830000000
C    -7.790000000     1.493000000     0.237000000
H    -8.454000000     0.693000000    -0.081000000
C    -8.003000000     2.014000000     1.479000000
H    -8.699000000     1.533000000     2.162000000
C    -7.118000000     2.965000000     1.966000000
H    -7.251000000     3.360000000     2.970000000
C    -6.124000000     3.532000000     1.181000000
O    -5.227000000     4.444000000     1.729000000
C    -4.018000000     4.102000000     2.360000000
C    -3.133000000     5.146000000     2.833000000
H    -3.497000000     6.168000000     2.904000000
C    -1.934000000     4.860000000     3.289000000
O    -1.047000000     5.887000000     3.657000000
C     0.377000000     5.798000000     3.756000000
C     1.193000000     5.391000000     2.664000000
H     0.847000000     4.988000000     1.715000000
C     0.850000000     6.281000000     4.902000000
H     0.162000000     6.582000000     5.689000000
C     2.208000000     6.401000000     5.077000000
H     2.634000000     6.639000000     6.048000000
C     3.089000000     6.112000000     4.023000000
H     4.149000000     6.308000000     4.166000000
C     2.532000000     5.663000000     2.813000000
O     3.439000000     5.383000000     1.791000000
C     3.814000000     4.179000000     1.166000000
C     4.527000000     4.267000000    -0.025000000
H     4.759000000     5.276000000    -0.357000000
C     4.991000000     3.113000000    -0.650000000
O     5.630000000     3.241000000    -1.829000000
C     6.141000000     2.134000000    -2.521000000
C     5.496000000     1.608000000    -3.657000000
H     4.604000000     2.120000000    -4.008000000
C     7.280000000     1.501000000    -2.064000000
H     7.841000000     1.997000000    -1.276000000
C     7.753000000     0.347000000    -2.760000000
H     8.653000000    -0.170000000    -2.438000000
C     7.124000000    -0.180000000    -3.911000000
H     7.561000000    -0.972000000    -4.514000000
C     5.867000000     0.348000000    -4.194000000
O     5.187000000    -0.098000000    -5.260000000
C     3.910000000    -0.700000000    -5.154000000
C     2.945000000    -0.649000000    -6.159000000
H     3.194000000    -0.092000000    -7.058000000
C     1.714000000    -1.312000000    -5.956000000
O     0.790000000    -1.174000000    -6.982000000
C    -0.595000000    -1.303000000    -6.712000000
C    -1.149000000    -2.559000000    -6.933000000
H    -0.502000000    -3.319000000    -7.364000000
C    -2.492000000    -2.814000000    -6.686000000
H    -2.870000000    -3.804000000    -6.931000000
C    -3.305000000    -1.829000000    -6.165000000
H    -4.331000000    -2.130000000    -5.968000000
C    -2.705000000    -0.584000000    -5.835000000
C    -1.376000000    -0.319000000    -6.067000000
H    -0.984000000     0.647000000    -5.760000000
C     0.400000000     1.087000000    -2.098000000
H     1.147000000     0.946000000    -2.874000000
C     0.578000000     0.455000000    -0.862000000
H     1.430000000    -0.207000000    -0.726000000
C    -0.334000000     0.622000000     0.184000000
H    -0.162000000     0.032000000     1.074000000
C    -1.541000000     1.317000000    -0.130000000
H    -2.298000000     1.488000000     0.631000000
C    -1.722000000     1.969000000    -1.330000000
H    -2.584000000     2.619000000    -1.463000000
C    -0.691000000     1.927000000    -2.274000000
C    -0.829000000     2.652000000    -3.546000000
O    -1.877000000     3.294000000    -3.778000000
O    -0.005000000     2.708000000    -4.397000000
O    -3.934000000     4.754000000    -3.534000000
H    -3.668000000     5.018000000    -2.653000000
H    -3.351000000     4.026000000    -3.751000000
O    -6.108000000     4.352000000    -5.186000000
H    -5.623000000     3.723000000    -5.721000000
H    -5.616000000     4.400000000    -4.367000000
O     3.388000000     2.761000000    -6.668000000
H     3.108000000     3.079000000    -5.810000000
H     4.238000000     2.352000000    -6.506000000
O    -1.669000000     5.591000000    -5.688000000
H    -1.174000000     4.906000000    -5.239000000
H    -2.079000000     6.092000000    -4.983000000
O    -6.204000000     6.549000000    -3.415000000
H    -5.388000000     6.118000000    -3.669000000
H    -5.925000000     7.317000000    -2.917000000
O    -5.435000000     2.536000000    -7.586000000
H    -5.415000000     1.601000000    -7.792000000
H    -4.610000000     2.698000000    -7.130000000
O     1.681000000     5.841000000    -7.400000000
H     1.275000000     6.702000000    -7.296000000
H     2.293000000     5.774000000    -6.667000000
O    -2.935000000     3.309000000    -6.528000000
H    -2.454000000     4.125000000    -6.661000000
H    -2.626000000     2.984000000    -5.682000000
O    -1.483000000     6.779000000     0.029000000
H    -2.109000000     6.400000000    -0.588000000
H    -0.720000000     6.995000000    -0.507000000
O    -2.155000000     6.452000000    -8.661000000
H    -2.294000000     6.667000000    -7.739000000
H    -1.988000000     7.295000000    -9.082000000
O     3.951000000     5.665000000    -5.737000000
H     4.463000000     6.190000000    -5.121000000
H     3.706000000     4.885000000    -5.239000000
O    -0.797000000     6.043000000    -2.740000000
H    -1.043000000     5.154000000    -2.998000000
H    -1.518000000     6.590000000    -3.050000000
O     2.284000000     7.195000000    -0.367000000
H     1.515000000     6.959000000     0.150000000
H     2.990000000     7.275000000     0.275000000
O    -2.766000000     8.065000000    -4.297000000
H    -2.428000000     8.621000000    -4.999000000
H    -3.014000000     8.677000000    -3.604000000
O     2.512000000     3.611000000    -4.310000000
H     2.426000000     4.394000000    -3.766000000
H     1.624000000     3.257000000    -4.360000000
O     0.668000000     2.363000000    -6.948000000
H     0.393000000     2.381000000    -6.031000000
H     1.585000000     2.636000000    -6.928000000
O    -3.576000000     5.345000000    -1.048000000
H    -3.344000000     4.688000000    -0.392000000
H    -4.205000000     5.915000000    -0.603000000
O     2.022000000     6.267000000    -3.132000000
H     1.101000000     6.434000000    -2.932000000
H     2.495000000     6.577000000    -2.359000000
O    -1.250000000     2.079000000    -8.870000000
H    -2.008000000     1.932000000    -8.305000000
H    -0.513000000     2.163000000    -8.265000000
