215
-1443.79765
C    -1.646000000     3.232000000     2.568000000
H    -0.578000000     3.327000000     2.744000000
C    -2.359000000     2.126000000     2.877000000
C    -3.685000000     2.001000000     2.505000000
H    -4.329000000     1.177000000     2.801000000
C    -1.671000000     0.882000000     3.496000000
O    -0.769000000     1.403000000     4.521000000
H    -1.088000000     0.417000000     2.687000000
O    -2.608000000     0.035000000     4.163000000
C    -2.367000000    -1.265000000     3.735000000
C    -3.170000000    -1.757000000     2.755000000
H    -3.992000000    -1.167000000     2.358000000
C    -2.948000000    -3.077000000     2.274000000
O    -3.687000000    -3.368000000     1.123000000
C    -1.907000000    -3.807000000     2.712000000
C    -1.611000000    -5.111000000     1.991000000
H    -1.197000000    -5.773000000     2.754000000
C    -0.726000000    -4.930000000     0.811000000
C     0.678000000    -5.075000000     1.016000000
H     1.148000000    -5.347000000     1.958000000
H    -2.459000000    -5.691000000     1.620000000
C    -1.205000000    -3.371000000     3.848000000
H    -0.371000000    -4.011000000     4.126000000
C    -1.392000000    -2.049000000     4.369000000
C    -0.426000000    -1.441000000     5.433000000
H    -0.026000000    -2.257000000     6.037000000
H    -0.926000000    -0.812000000     6.173000000
C     0.685000000    -0.500000000     4.768000000
C     1.963000000    -1.060000000     4.585000000
H     2.057000000    -2.124000000     4.786000000
C     0.486000000     0.831000000     4.495000000
C     1.575000000     1.590000000     3.974000000
H     1.479000000     2.672000000     3.948000000
C     2.778000000     0.939000000     3.684000000
O     3.743000000     1.707000000     3.026000000
C     3.756000000     1.575000000     1.507000000
C     4.023000000     2.929000000     0.886000000
C     4.486000000     3.061000000    -0.430000000
H     4.718000000     2.154000000    -0.981000000
C     3.611000000     4.046000000     1.570000000
H     3.124000000     3.921000000     2.534000000
O     4.795000000     0.632000000     1.110000000
H     2.764000000     1.223000000     1.186000000
C     2.957000000    -0.390000000     3.908000000
C     4.248000000    -1.109000000     3.465000000
H     4.339000000    -2.018000000     4.063000000
H     5.084000000    -0.427000000     3.630000000
C     4.141000000    -1.572000000     2.021000000
C     3.695000000    -2.893000000     1.747000000
H     3.442000000    -3.468000000     2.633000000
C     4.514000000    -0.727000000     0.929000000
C     4.516000000    -1.261000000    -0.381000000
H     4.762000000    -0.618000000    -1.221000000
C     4.010000000    -2.567000000    -0.577000000
O     3.794000000    -2.809000000    -1.902000000
C     2.421000000    -2.839000000    -2.417000000
C     2.266000000    -2.064000000    -3.730000000
C     3.084000000    -0.977000000    -3.963000000
H     3.928000000    -0.746000000    -3.317000000
C     1.205000000    -2.364000000    -4.661000000
H     0.429000000    -3.122000000    -4.607000000
O     1.816000000    -4.116000000    -2.404000000
H     1.864000000    -2.195000000    -1.720000000
C     3.532000000    -3.372000000     0.418000000
C     3.023000000    -4.745000000     0.188000000
H     3.293000000    -5.261000000     1.112000000
H     3.649000000    -5.146000000    -0.613000000
C     1.529000000    -4.798000000    -0.058000000
C     1.025000000    -4.505000000    -1.325000000
C    -0.365000000    -4.423000000    -1.495000000
H    -0.719000000    -4.129000000    -2.479000000
C    -1.239000000    -4.595000000    -0.456000000
O    -2.561000000    -4.294000000    -0.674000000
C    -3.159000000    -3.058000000    -0.150000000
H    -2.264000000    -2.428000000    -0.043000000
C    -4.078000000    -2.259000000    -1.127000000
C    -5.331000000    -1.777000000    -0.780000000
H    -5.761000000    -2.121000000     0.157000000
C    -3.548000000    -1.819000000    -2.332000000
H    -2.601000000    -2.156000000    -2.745000000
C    -4.340000000    -1.065000000    -3.214000000
O    -3.987000000    -0.912000000    -4.524000000
C    -5.544000000    -0.568000000    -2.781000000
H    -6.099000000     0.063000000    -3.471000000
C    -6.033000000    -0.960000000    -1.620000000
O    -7.255000000    -0.422000000    -1.342000000
C    -7.332000000     0.237000000    -0.085000000
C    -6.417000000     1.310000000     0.122000000
H    -5.691000000     1.684000000    -0.596000000
C    -8.277000000    -0.120000000     0.900000000
H    -8.889000000    -1.012000000     0.796000000
C    -8.303000000     0.624000000     2.109000000
H    -8.910000000     0.406000000     2.984000000
C    -7.340000000     1.648000000     2.328000000
H    -7.282000000     2.316000000     3.184000000
C    -6.417000000     1.979000000     1.364000000
O    -5.623000000     3.132000000     1.568000000
C    -4.246000000     3.124000000     1.803000000
C    -3.478000000     4.270000000     1.479000000
H    -3.858000000     5.175000000     1.012000000
C    -2.205000000     4.359000000     1.971000000
O    -1.397000000     5.341000000     1.516000000
C    -0.393000000     5.900000000     2.235000000
C     0.844000000     5.823000000     1.607000000
H     0.923000000     5.236000000     0.696000000
C    -0.602000000     6.751000000     3.307000000
H    -1.583000000     6.955000000     3.729000000
C     0.444000000     7.580000000     3.793000000
H     0.186000000     8.214000000     4.637000000
C     1.707000000     7.431000000     3.173000000
H     2.517000000     8.040000000     3.565000000
C     1.941000000     6.499000000     2.159000000
O     3.257000000     6.395000000     1.631000000
C     3.727000000     5.311000000     0.971000000
C     4.245000000     5.438000000    -0.380000000
H     4.459000000     6.417000000    -0.800000000
C     4.660000000     4.323000000    -1.050000000
O     5.184000000     4.457000000    -2.332000000
C     5.490000000     3.343000000    -3.092000000
C     4.461000000     2.660000000    -3.707000000
H     3.433000000     2.984000000    -3.565000000
C     6.713000000     2.659000000    -3.049000000
H     7.436000000     3.275000000    -2.522000000
C     6.948000000     1.507000000    -3.796000000
H     7.920000000     1.021000000    -3.832000000
C     5.894000000     0.947000000    -4.522000000
H     6.108000000     0.121000000    -5.195000000
C     4.613000000     1.507000000    -4.457000000
O     3.620000000     1.029000000    -5.226000000
C     2.840000000    -0.088000000    -5.066000000
C     1.941000000    -0.540000000    -6.065000000
H     1.688000000     0.052000000    -6.941000000
C     1.109000000    -1.583000000    -5.870000000
O     0.166000000    -1.846000000    -6.814000000
C    -1.062000000    -2.155000000    -6.365000000
C    -1.559000000    -3.382000000    -6.830000000
H    -0.952000000    -3.947000000    -7.533000000
C    -2.934000000    -3.722000000    -6.582000000
H    -3.420000000    -4.587000000    -7.026000000
C    -3.691000000    -2.854000000    -5.805000000
H    -4.745000000    -3.066000000    -5.645000000
C    -3.160000000    -1.656000000    -5.253000000
C    -1.838000000    -1.287000000    -5.613000000
H    -1.221000000    -0.482000000    -5.220000000
C     0.147000000     1.677000000    -1.599000000
H     0.935000000     2.164000000    -2.167000000
C     0.446000000     0.741000000    -0.564000000
H     1.453000000     0.334000000    -0.596000000
C    -0.672000000     0.078000000     0.055000000
H    -0.453000000    -0.665000000     0.878000000
C    -1.932000000     0.498000000    -0.170000000
H    -2.691000000     0.017000000     0.441000000
C    -2.193000000     1.491000000    -1.177000000
H    -3.234000000     1.723000000    -1.384000000
C    -1.144000000     2.049000000    -1.924000000
C    -1.390000000     3.050000000    -3.002000000
O    -2.391000000     3.794000000    -3.086000000
O    -0.575000000     3.155000000    -3.908000000
O    -3.882000000     5.243000000    -1.600000000
H    -4.802000000     5.078000000    -1.804000000
H    -3.401000000     4.608000000    -2.129000000
O    -4.628000000     7.461000000    -0.289000000
H    -4.029000000     6.931000000    -0.816000000
H    -5.388000000     6.896000000    -0.150000000
O    -7.490000000     2.089000000    -4.221000000
H    -6.620000000     2.194000000    -3.836000000
H    -8.095000000     2.297000000    -3.509000000
O     0.828000000     5.335000000    -3.279000000
H     0.206000000     4.615000000    -3.383000000
H     0.395000000     5.940000000    -2.678000000
O     2.346000000     3.263000000    -8.002000000
H     3.175000000     2.795000000    -7.899000000
H     2.139000000     3.580000000    -7.123000000
O     1.976000000     7.963000000    -4.288000000
H     1.659000000     7.060000000    -4.313000000
H     1.262000000     8.479000000    -4.661000000
O    -2.217000000     5.058000000    -5.251000000
H    -2.298000000     4.624000000    -4.402000000
H    -1.290000000     4.975000000    -5.475000000
O    -0.567000000     3.255000000    -8.400000000
H    -0.857000000     3.457000000    -9.290000000
H     0.302000000     3.649000000    -8.336000000
O    -3.870000000     1.292000000    -6.378000000
H    -2.954000000     1.542000000    -6.258000000
H    -3.951000000     0.453000000    -5.925000000
O    -4.742000000     4.077000000    -6.634000000
H    -4.350000000     3.213000000    -6.761000000
H    -3.994000000     4.671000000    -6.567000000
O    -4.959000000     2.586000000    -3.667000000
H    -4.152000000     2.995000000    -3.355000000
H    -4.718000000     2.188000000    -4.504000000
O    -3.315000000     7.359000000    -6.618000000
H    -2.482000000     7.734000000    -6.903000000
H    -3.082000000     6.502000000    -6.261000000
O    -1.130000000     1.893000000    -6.093000000
H    -1.051000000     2.450000000    -6.868000000
H    -0.776000000     2.424000000    -5.380000000
O    -1.119000000     7.068000000    -1.501000000
H    -1.808000000     6.598000000    -1.031000000
H    -1.542000000     7.371000000    -2.304000000
O     0.223000000     6.727000000    -6.874000000
H     0.797000000     6.447000000    -7.587000000
H     0.763000000     6.647000000    -6.087000000
O    -6.685000000     5.118000000    -4.808000000
H    -7.279000000     4.371000000    -4.893000000
H    -5.999000000     4.953000000    -5.454000000
O     1.891000000     3.732000000    -5.286000000
H     2.210000000     3.022000000    -4.730000000
H     0.950000000     3.768000000    -5.113000000
O     4.029000000     5.443000000    -5.309000000
H     3.304000000     4.819000000    -5.348000000
H     4.108000000     5.661000000    -4.380000000
O    -2.682000000     7.613000000    -3.519000000
H    -2.794000000     6.843000000    -4.077000000
H    -3.339000000     8.234000000    -3.834000000
