215
-1435.86737
C    -0.788000000     3.527000000     3.540000000
H     0.065000000     3.497000000     4.214000000
C    -1.637000000     2.479000000     3.257000000
C    -2.667000000     2.747000000     2.354000000
H    -3.276000000     1.975000000     1.892000000
C    -1.388000000     1.075000000     3.796000000
O    -0.428000000     1.111000000     4.884000000
H    -1.001000000     0.431000000     2.993000000
O    -2.533000000     0.347000000     4.311000000
C    -2.672000000    -0.910000000     3.838000000
C    -3.669000000    -1.031000000     2.829000000
H    -4.228000000    -0.167000000     2.480000000
C    -3.647000000    -2.167000000     2.062000000
O    -4.393000000    -2.214000000     0.916000000
C    -2.858000000    -3.247000000     2.426000000
C    -2.828000000    -4.548000000     1.606000000
H    -2.679000000    -5.359000000     2.321000000
C    -1.845000000    -4.571000000     0.407000000
C    -0.491000000    -4.951000000     0.526000000
H    -0.105000000    -5.276000000     1.489000000
H    -3.803000000    -4.855000000     1.222000000
C    -1.993000000    -3.247000000     3.485000000
H    -1.244000000    -4.005000000     3.698000000
C    -1.901000000    -2.061000000     4.205000000
C    -0.874000000    -1.868000000     5.294000000
H    -0.578000000    -2.819000000     5.741000000
H    -1.262000000    -1.231000000     6.092000000
C     0.428000000    -1.219000000     4.838000000
C     1.513000000    -2.060000000     4.459000000
H     1.461000000    -3.145000000     4.498000000
C     0.594000000     0.177000000     4.735000000
C     1.827000000     0.717000000     4.281000000
H     1.843000000     1.788000000     4.098000000
C     2.844000000    -0.104000000     3.878000000
O     3.859000000     0.582000000     3.168000000
C     3.837000000     0.522000000     1.742000000
C     4.295000000     1.798000000     0.986000000
C     5.104000000     1.781000000    -0.099000000
H     5.507000000     0.808000000    -0.370000000
C     3.853000000     3.013000000     1.468000000
H     3.219000000     3.016000000     2.351000000
O     4.639000000    -0.580000000     1.330000000
H     2.809000000     0.321000000     1.406000000
C     2.681000000    -1.553000000     3.888000000
C     3.717000000    -2.499000000     3.370000000
H     3.760000000    -3.399000000     3.986000000
H     4.711000000    -2.102000000     3.585000000
C     3.613000000    -2.777000000     1.882000000
C     2.971000000    -3.915000000     1.390000000
H     2.622000000    -4.639000000     2.122000000
C     4.045000000    -1.788000000     0.944000000
C     3.757000000    -2.020000000    -0.397000000
H     4.143000000    -1.296000000    -1.110000000
C     3.087000000    -3.127000000    -0.906000000
O     2.795000000    -3.172000000    -2.237000000
C     1.475000000    -2.923000000    -2.734000000
C     1.590000000    -2.058000000    -4.029000000
C     2.614000000    -1.120000000    -4.079000000
H     3.309000000    -0.981000000    -3.254000000
C     0.622000000    -2.089000000    -5.018000000
H    -0.192000000    -2.804000000    -4.931000000
O     0.649000000    -4.049000000    -2.885000000
H     1.139000000    -2.198000000    -1.979000000
C     2.690000000    -4.032000000     0.032000000
C     1.846000000    -5.242000000    -0.452000000
H     2.024000000    -6.116000000     0.178000000
H     2.082000000    -5.600000000    -1.457000000
C     0.394000000    -4.858000000    -0.567000000
C    -0.133000000    -4.371000000    -1.797000000
C    -1.492000000    -4.017000000    -1.918000000
H    -1.942000000    -3.561000000    -2.797000000
C    -2.273000000    -4.031000000    -0.771000000
O    -3.530000000    -3.561000000    -0.922000000
C    -3.786000000    -2.222000000    -0.398000000
H    -2.832000000    -1.690000000    -0.275000000
C    -4.535000000    -1.367000000    -1.358000000
C    -5.554000000    -0.513000000    -0.955000000
H    -6.026000000    -0.670000000     0.012000000
C    -4.048000000    -1.107000000    -2.679000000
H    -3.180000000    -1.653000000    -3.041000000
C    -4.593000000    -0.085000000    -3.535000000
O    -4.262000000     0.206000000    -4.866000000
C    -5.663000000     0.617000000    -3.060000000
H    -6.147000000     1.421000000    -3.609000000
C    -6.076000000     0.503000000    -1.770000000
O    -6.956000000     1.474000000    -1.326000000
C    -6.656000000     2.131000000    -0.151000000
C    -5.494000000     2.856000000     0.008000000
H    -4.761000000     2.933000000    -0.791000000
C    -7.504000000     1.893000000     0.957000000
H    -8.355000000     1.228000000     0.834000000
C    -7.220000000     2.364000000     2.228000000
H    -7.897000000     2.090000000     3.034000000
C    -6.118000000     3.198000000     2.408000000
H    -6.003000000     3.662000000     3.384000000
C    -5.361000000     3.504000000     1.261000000
O    -4.236000000     4.332000000     1.405000000
C    -3.057000000     4.073000000     2.059000000
C    -2.284000000     5.144000000     2.476000000
H    -2.527000000     6.163000000     2.186000000
C    -1.105000000     4.866000000     3.184000000
O    -0.379000000     5.947000000     3.636000000
C     0.985000000     6.006000000     3.675000000
C     1.748000000     5.694000000     2.535000000
H     1.263000000     5.573000000     1.570000000
C     1.556000000     6.292000000     4.913000000
H     0.958000000     6.479000000     5.801000000
C     2.962000000     6.049000000     5.021000000
H     3.455000000     6.143000000     5.985000000
C     3.756000000     5.703000000     3.910000000
H     4.820000000     5.506000000     4.017000000
C     3.134000000     5.578000000     2.656000000
O     3.843000000     5.478000000     1.384000000
C     4.315000000     4.285000000     0.988000000
C     5.054000000     4.184000000    -0.160000000
H     5.300000000     5.076000000    -0.730000000
C     5.551000000     2.998000000    -0.656000000
O     6.329000000     3.014000000    -1.793000000
C     6.218000000     2.032000000    -2.819000000
C     5.088000000     1.872000000    -3.599000000
H     4.250000000     2.559000000    -3.514000000
C     7.239000000     1.136000000    -2.877000000
H     8.090000000     1.331000000    -2.230000000
C     7.134000000     0.029000000    -3.736000000
H     7.914000000    -0.726000000    -3.789000000
C     5.976000000    -0.165000000    -4.522000000
H     5.855000000    -0.976000000    -5.236000000
C     5.009000000     0.814000000    -4.487000000
O     3.769000000     0.625000000    -5.249000000
C     2.696000000    -0.281000000    -5.165000000
C     1.689000000    -0.232000000    -6.151000000
H     1.860000000     0.330000000    -7.065000000
C     0.665000000    -1.185000000    -6.112000000
O    -0.309000000    -1.139000000    -7.058000000
C    -1.617000000    -1.334000000    -6.800000000
C    -2.366000000    -2.132000000    -7.674000000
H    -1.835000000    -2.737000000    -8.405000000
C    -3.726000000    -2.290000000    -7.505000000
H    -4.281000000    -2.847000000    -8.256000000
C    -4.357000000    -1.579000000    -6.456000000
H    -5.443000000    -1.564000000    -6.489000000
C    -3.603000000    -0.663000000    -5.694000000
C    -2.273000000    -0.569000000    -5.882000000
H    -1.726000000     0.194000000    -5.333000000
C     1.079000000     1.198000000    -2.176000000
H     1.996000000     1.258000000    -2.756000000
C     0.948000000     0.179000000    -1.201000000
H     1.833000000    -0.340000000    -0.842000000
C    -0.341000000    -0.140000000    -0.720000000
H    -0.388000000    -0.908000000     0.038000000
C    -1.420000000     0.595000000    -1.083000000
H    -2.420000000     0.334000000    -0.745000000
C    -1.256000000     1.640000000    -1.928000000
H    -2.078000000     2.289000000    -2.220000000
C     0.000000000     2.059000000    -2.473000000
C     0.177000000     3.176000000    -3.461000000
O    -0.874000000     3.709000000    -3.816000000
O     1.282000000     3.422000000    -3.926000000
O    -3.178000000     4.888000000    -4.006000000
H    -3.035000000     5.834000000    -4.026000000
H    -2.335000000     4.524000000    -3.735000000
O    -4.364000000     5.060000000    -6.351000000
H    -3.681000000     5.321000000    -6.968000000
H    -3.900000000     4.913000000    -5.527000000
O     4.587000000     3.421000000    -7.384000000
H     5.132000000     3.802000000    -6.695000000
H     4.047000000     2.773000000    -6.931000000
O     0.168000000     5.904000000    -5.341000000
H     0.017000000     5.032000000    -4.976000000
H     0.966000000     6.209000000    -4.908000000
O    -5.549000000     5.952000000    -2.520000000
H    -4.735000000     5.780000000    -2.994000000
H    -5.266000000     6.312000000    -1.680000000
O    -2.228000000     3.488000000    -8.938000000
H    -2.031000000     4.241000000    -8.380000000
H    -1.753000000     2.761000000    -8.535000000
O     2.384000000     4.501000000    -8.858000000
H     2.541000000     5.359000000    -8.463000000
H     1.992000000     3.982000000    -8.156000000
O    -1.758000000     2.615000000    -6.180000000
H    -2.706000000     2.522000000    -6.274000000
H    -1.641000000     3.014000000    -5.318000000
O    -0.231000000     7.977000000     0.424000000
H     0.565000000     7.519000000     0.694000000
H     0.064000000     8.603000000    -0.236000000
O    -1.797000000     5.844000000    -7.402000000
H    -1.127000000     6.108000000    -6.771000000
H    -1.748000000     6.504000000    -8.093000000
O     1.310000000     7.175000000    -7.946000000
H     0.950000000     7.159000000    -7.059000000
H     0.758000000     7.799000000    -8.417000000
O     5.225000000     5.363000000    -5.559000000
H     5.923000000     5.577000000    -4.941000000
H     4.443000000     5.773000000    -5.189000000
O     0.107000000     5.731000000    -1.979000000
H    -0.047000000     5.109000000    -2.689000000
H    -0.757000000     5.870000000    -1.590000000
O     2.961000000     5.764000000    -4.123000000
H     2.812000000     6.033000000    -3.217000000
H     2.528000000     4.914000000    -4.196000000
O     1.082000000     3.394000000    -6.607000000
H     0.294000000     2.853000000    -6.649000000
H     1.228000000     3.533000000    -5.671000000
O    -2.311000000     6.523000000    -1.183000000
H    -1.705000000     7.075000000    -0.689000000
H    -3.117000000     6.531000000    -0.667000000
O     2.386000000     7.055000000    -1.602000000
H     1.542000000     6.609000000    -1.670000000
H     2.283000000     7.650000000    -0.859000000
O     2.800000000     8.584000000    -5.620000000
H     2.668000000     7.637000000    -5.568000000
H     3.674000000     8.724000000    -5.255000000
O    -0.897000000     1.101000000    -8.671000000
H    -0.849000000     1.083000000    -7.715000000
H    -1.151000000     0.211000000    -8.915000000
