215
-1454.38897
C    -2.053000000     3.837000000     2.912000000
H    -1.124000000     3.952000000     3.466000000
C    -2.603000000     2.558000000     2.798000000
C    -3.720000000     2.379000000     2.014000000
H    -4.297000000     1.459000000     1.968000000
C    -1.895000000     1.363000000     3.429000000
O    -0.930000000     1.765000000     4.410000000
H    -1.340000000     0.973000000     2.563000000
O    -2.801000000     0.323000000     3.977000000
C    -2.541000000    -0.993000000     3.743000000
C    -3.362000000    -1.678000000     2.869000000
H    -4.124000000    -1.079000000     2.378000000
C    -2.968000000    -2.897000000     2.286000000
O    -3.686000000    -3.314000000     1.150000000
C    -1.929000000    -3.601000000     2.855000000
C    -1.554000000    -4.923000000     2.331000000
H    -1.037000000    -5.425000000     3.150000000
C    -0.595000000    -4.820000000     1.170000000
C     0.796000000    -4.825000000     1.405000000
H     1.134000000    -4.753000000     2.436000000
H    -2.381000000    -5.619000000     2.169000000
C    -1.152000000    -3.008000000     3.876000000
H    -0.279000000    -3.518000000     4.277000000
C    -1.460000000    -1.681000000     4.386000000
C    -0.658000000    -1.013000000     5.459000000
H    -0.107000000    -1.762000000     6.032000000
H    -1.207000000    -0.364000000     6.144000000
C     0.474000000    -0.189000000     4.758000000
C     1.640000000    -0.804000000     4.428000000
H     1.679000000    -1.890000000     4.404000000
C     0.331000000     1.152000000     4.543000000
C     1.423000000     1.835000000     4.091000000
H     1.276000000     2.889000000     3.871000000
C     2.645000000     1.220000000     3.861000000
O     3.473000000     1.922000000     3.026000000
C     3.569000000     1.686000000     1.674000000
C     3.560000000     3.001000000     0.863000000
C     3.962000000     2.833000000    -0.503000000
H     4.340000000     1.876000000    -0.851000000
C     3.004000000     4.199000000     1.331000000
H     2.627000000     4.188000000     2.351000000
O     4.742000000     0.841000000     1.321000000
H     2.634000000     1.163000000     1.425000000
C     2.759000000    -0.136000000     3.973000000
C     4.108000000    -0.848000000     3.683000000
H     4.269000000    -1.689000000     4.361000000
H     4.946000000    -0.153000000     3.763000000
C     4.110000000    -1.350000000     2.292000000
C     3.756000000    -2.679000000     2.130000000
H     3.414000000    -3.284000000     2.966000000
C     4.460000000    -0.531000000     1.139000000
C     4.525000000    -1.082000000    -0.107000000
H     4.864000000    -0.528000000    -0.978000000
C     4.082000000    -2.408000000    -0.328000000
O     3.989000000    -2.931000000    -1.585000000
C     2.631000000    -2.898000000    -2.156000000
C     2.549000000    -2.392000000    -3.581000000
C     3.405000000    -1.335000000    -3.955000000
H     4.029000000    -0.934000000    -3.160000000
C     1.655000000    -2.935000000    -4.488000000
H     1.055000000    -3.793000000    -4.195000000
O     1.993000000    -4.178000000    -1.976000000
H     2.123000000    -2.118000000    -1.571000000
C     3.680000000    -3.183000000     0.818000000
C     3.169000000    -4.636000000     0.606000000
H     3.469000000    -5.117000000     1.539000000
H     3.763000000    -5.098000000    -0.186000000
C     1.669000000    -4.734000000     0.359000000
C     1.153000000    -4.494000000    -0.929000000
C    -0.182000000    -4.321000000    -1.188000000
H    -0.501000000    -4.001000000    -2.176000000
C    -1.057000000    -4.584000000    -0.169000000
O    -2.405000000    -4.270000000    -0.543000000
C    -2.999000000    -3.046000000    -0.124000000
H    -2.198000000    -2.328000000     0.106000000
C    -3.860000000    -2.372000000    -1.210000000
C    -5.111000000    -1.887000000    -0.984000000
H    -5.466000000    -1.942000000     0.042000000
C    -3.403000000    -2.247000000    -2.509000000
H    -2.455000000    -2.758000000    -2.661000000
C    -4.173000000    -1.599000000    -3.516000000
O    -3.699000000    -1.699000000    -4.800000000
C    -5.400000000    -1.027000000    -3.205000000
H    -5.947000000    -0.509000000    -3.987000000
C    -5.865000000    -1.206000000    -1.900000000
O    -6.996000000    -0.577000000    -1.508000000
C    -6.956000000     0.274000000    -0.457000000
C    -6.271000000     1.472000000    -0.516000000
H    -5.632000000     1.820000000    -1.324000000
C    -7.734000000    -0.038000000     0.682000000
H    -8.365000000    -0.907000000     0.516000000
C    -7.770000000     0.691000000     1.797000000
H    -8.361000000     0.358000000     2.646000000
C    -6.957000000     1.836000000     1.819000000
H    -6.991000000     2.465000000     2.705000000
C    -6.257000000     2.225000000     0.658000000
O    -5.470000000     3.330000000     0.571000000
C    -4.345000000     3.478000000     1.411000000
C    -3.816000000     4.819000000     1.557000000
H    -4.240000000     5.650000000     0.999000000
C    -2.647000000     4.994000000     2.337000000
O    -2.024000000     6.228000000     2.348000000
C    -0.726000000     6.507000000     2.679000000
C     0.304000000     6.005000000     1.868000000
H     0.072000000     5.406000000     0.992000000
C    -0.455000000     7.451000000     3.668000000
H    -1.291000000     7.886000000     4.209000000
C     0.807000000     8.045000000     3.863000000
H     0.893000000     8.820000000     4.620000000
C     1.788000000     7.607000000     3.075000000
H     2.801000000     7.991000000     3.152000000
C     1.552000000     6.617000000     2.018000000
O     2.505000000     6.477000000     0.999000000
C     2.909000000     5.234000000     0.467000000
C     3.302000000     5.120000000    -0.802000000
H     3.286000000     5.981000000    -1.465000000
C     3.837000000     3.937000000    -1.297000000
O     4.214000000     3.883000000    -2.652000000
C     4.904000000     2.959000000    -3.341000000
C     4.224000000     2.101000000    -4.230000000
H     3.165000000     2.190000000    -4.461000000
C     6.241000000     2.737000000    -3.003000000
H     6.668000000     3.454000000    -2.306000000
C     6.946000000     1.682000000    -3.639000000
H     8.000000000     1.575000000    -3.396000000
C     6.268000000     0.923000000    -4.606000000
H     6.825000000     0.098000000    -5.044000000
C     4.887000000     1.035000000    -4.807000000
O     4.196000000     0.239000000    -5.672000000
C     3.356000000    -0.806000000    -5.249000000
C     2.374000000    -1.264000000    -6.101000000
H     2.252000000    -1.002000000    -7.149000000
C     1.518000000    -2.268000000    -5.707000000
O     0.512000000    -2.654000000    -6.628000000
C    -0.760000000    -3.100000000    -6.306000000
C    -1.236000000    -4.183000000    -6.875000000
H    -0.622000000    -4.735000000    -7.582000000
C    -2.600000000    -4.513000000    -6.748000000
H    -3.020000000    -5.371000000    -7.267000000
C    -3.401000000    -3.777000000    -5.855000000
H    -4.465000000    -3.955000000    -5.724000000
C    -2.868000000    -2.668000000    -5.290000000
C    -1.533000000    -2.303000000    -5.532000000
H    -1.140000000    -1.437000000    -5.005000000
C     0.459000000     1.248000000    -2.414000000
H     0.850000000     1.539000000    -3.386000000
C     1.341000000     0.382000000    -1.792000000
H     2.365000000     0.291000000    -2.148000000
C     0.930000000    -0.221000000    -0.581000000
H     1.557000000    -0.940000000     0.025000000
C    -0.353000000     0.072000000    -0.085000000
H    -0.719000000    -0.418000000     0.813000000
C    -1.219000000     0.871000000    -0.746000000
H    -2.182000000     1.057000000    -0.277000000
C    -0.840000000     1.548000000    -1.947000000
C    -1.726000000     2.492000000    -2.688000000
O    -2.881000000     2.652000000    -2.422000000
O    -1.205000000     3.254000000    -3.543000000
O    -4.174000000     5.004000000    -2.270000000
H    -4.769000000     5.051000000    -3.019000000
H    -3.799000000     4.125000000    -2.318000000
O    -2.124000000     0.250000000    -8.738000000
H    -1.582000000    -0.439000000    -9.121000000
H    -1.497000000     0.905000000    -8.432000000
O    -5.026000000     7.527000000    -1.100000000
H    -4.461000000     6.797000000    -1.355000000
H    -5.876000000     7.318000000    -1.487000000
O     0.224000000     2.162000000    -7.783000000
H    -0.219000000     1.854000000    -6.993000000
H    -0.135000000     3.036000000    -7.934000000
O    -7.969000000     1.632000000    -3.583000000
H    -7.255000000     1.335000000    -3.019000000
H    -8.239000000     2.470000000    -3.206000000
O     0.580000000     5.737000000    -2.275000000
H     0.618000000     5.072000000    -2.962000000
H    -0.341000000     5.760000000    -2.015000000
O     3.045000000     5.456000000    -5.591000000
H     3.488000000     4.616000000    -5.709000000
H     2.159000000     5.224000000    -5.312000000
O     1.741000000     8.387000000    -2.941000000
H     1.529000000     7.456000000    -2.874000000
H     1.149000000     8.720000000    -3.616000000
O    -1.942000000     5.367000000    -5.246000000
H    -1.897000000     4.667000000    -4.595000000
H    -2.318000000     6.110000000    -4.773000000
O    -3.910000000     0.713000000    -5.923000000
H    -3.588000000    -0.185000000    -5.840000000
H    -4.500000000     0.687000000    -6.676000000
O    -5.028000000     4.174000000    -7.120000000
H    -4.193000000     3.996000000    -6.687000000
H    -4.953000000     5.080000000    -7.420000000
O    -4.930000000     2.277000000    -3.946000000
H    -4.183000000     2.438000000    -3.369000000
H    -4.578000000     1.725000000    -4.644000000
O    -3.618000000     6.939000000    -7.132000000
H    -3.175000000     7.786000000    -7.192000000
H    -3.120000000     6.454000000    -6.474000000
O    -1.463000000     1.720000000    -5.772000000
H    -2.402000000     1.561000000    -5.860000000
H    -1.389000000     2.302000000    -5.015000000
O    -1.900000000     5.697000000    -1.052000000
H    -2.037000000     5.311000000    -0.187000000
H    -2.606000000     5.339000000    -1.589000000
O     0.672000000     4.362000000    -4.806000000
H     0.107000000     3.690000000    -4.425000000
H     0.070000000     4.951000000    -5.261000000
O    -5.903000000     4.678000000    -4.399000000
H    -5.733000000     3.747000000    -4.257000000
H    -5.864000000     4.786000000    -5.350000000
O    -0.844000000     8.459000000    -1.096000000
H     0.101000000     8.354000000    -1.206000000
H    -1.159000000     7.581000000    -0.882000000
O    -3.145000000     7.715000000    -3.705000000
H    -2.986000000     8.656000000    -3.774000000
H    -2.856000000     7.486000000    -2.822000000
