215
-1455.18847
C    -0.634000000     3.423000000     4.387000000
H     0.357000000     3.058000000     4.642000000
C    -1.634000000     2.482000000     4.256000000
C    -2.947000000     2.898000000     3.993000000
H    -3.714000000     2.135000000     3.883000000
C    -1.244000000     1.019000000     4.088000000
O    -0.072000000     0.554000000     4.855000000
H    -0.973000000     0.947000000     3.024000000
O    -2.365000000     0.147000000     4.476000000
C    -2.622000000    -0.983000000     3.706000000
C    -3.574000000    -0.813000000     2.681000000
H    -3.989000000     0.182000000     2.542000000
C    -3.871000000    -1.831000000     1.754000000
O    -4.551000000    -1.472000000     0.634000000
C    -3.186000000    -3.092000000     1.868000000
C    -3.349000000    -4.260000000     0.926000000
H    -3.111000000    -5.210000000     1.410000000
C    -2.454000000    -4.077000000    -0.230000000
C    -1.267000000    -4.745000000    -0.240000000
H    -0.906000000    -5.396000000     0.553000000
H    -4.419000000    -4.230000000     0.710000000
C    -2.223000000    -3.209000000     2.922000000
H    -1.558000000    -4.069000000     2.931000000
C    -1.965000000    -2.170000000     3.785000000
C    -0.919000000    -2.237000000     4.865000000
H    -0.837000000    -3.260000000     5.238000000
H    -1.214000000    -1.621000000     5.718000000
C     0.411000000    -1.794000000     4.327000000
C     1.331000000    -2.762000000     3.805000000
H     0.960000000    -3.779000000     3.707000000
C     0.807000000    -0.439000000     4.387000000
C     2.077000000    -0.085000000     3.995000000
H     2.265000000     0.970000000     3.814000000
C     2.994000000    -1.060000000     3.545000000
O     4.082000000    -0.555000000     2.861000000
C     3.978000000    -0.592000000     1.422000000
C     4.620000000     0.735000000     1.014000000
C     5.454000000     0.856000000    -0.122000000
H     5.887000000    -0.028000000    -0.584000000
C     4.069000000     1.948000000     1.465000000
H     3.323000000     2.012000000     2.253000000
O     4.758000000    -1.665000000     0.885000000
H     2.998000000    -0.642000000     0.926000000
C     2.649000000    -2.412000000     3.524000000
C     3.454000000    -3.484000000     2.843000000
H     3.109000000    -4.430000000     3.265000000
H     4.493000000    -3.452000000     3.179000000
C     3.314000000    -3.581000000     1.325000000
C     2.304000000    -4.454000000     0.810000000
H     1.768000000    -5.194000000     1.398000000
C     4.033000000    -2.772000000     0.412000000
C     3.770000000    -2.823000000    -0.976000000
H     4.239000000    -2.168000000    -1.705000000
C     2.712000000    -3.602000000    -1.454000000
O     2.445000000    -3.492000000    -2.813000000
C     1.204000000    -2.778000000    -3.243000000
C     1.486000000    -1.808000000    -4.369000000
C     2.697000000    -1.121000000    -4.388000000
H     3.500000000    -1.342000000    -3.689000000
C     0.467000000    -1.597000000    -5.327000000
H    -0.458000000    -2.157000000    -5.432000000
O     0.199000000    -3.740000000    -3.454000000
H     0.863000000    -2.135000000    -2.418000000
C     2.099000000    -4.498000000    -0.594000000
C     0.957000000    -5.329000000    -1.112000000
H     0.783000000    -6.172000000    -0.440000000
H     1.224000000    -5.826000000    -2.047000000
C    -0.392000000    -4.549000000    -1.283000000
C    -0.773000000    -3.883000000    -2.423000000
C    -1.918000000    -3.192000000    -2.467000000
H    -2.267000000    -2.643000000    -3.338000000
C    -2.810000000    -3.280000000    -1.368000000
O    -3.948000000    -2.561000000    -1.369000000
C    -3.860000000    -1.351000000    -0.603000000
H    -2.781000000    -1.223000000    -0.429000000
C    -4.288000000    -0.034000000    -1.310000000
C    -5.139000000     0.880000000    -0.642000000
H    -5.539000000     0.668000000     0.346000000
C    -3.841000000     0.214000000    -2.536000000
H    -3.363000000    -0.546000000    -3.150000000
C    -4.188000000     1.410000000    -3.147000000
O    -3.757000000     1.731000000    -4.392000000
C    -4.960000000     2.339000000    -2.483000000
H    -5.308000000     3.285000000    -2.890000000
C    -5.423000000     2.109000000    -1.186000000
O    -6.002000000     3.087000000    -0.481000000
C    -6.286000000     3.053000000     0.861000000
C    -5.294000000     3.635000000     1.689000000
H    -4.391000000     4.065000000     1.265000000
C    -7.493000000     2.691000000     1.517000000
H    -8.346000000     2.344000000     0.939000000
C    -7.651000000     2.869000000     2.887000000
H    -8.583000000     2.528000000     3.328000000
C    -6.660000000     3.540000000     3.622000000
H    -6.822000000     3.632000000     4.693000000
C    -5.415000000     3.855000000     3.072000000
O    -4.568000000     4.575000000     3.800000000
C    -3.229000000     4.213000000     3.790000000
C    -2.224000000     5.158000000     3.798000000
H    -2.426000000     6.210000000     3.613000000
C    -0.939000000     4.732000000     4.093000000
O     0.073000000     5.646000000     4.045000000
C     1.372000000     5.263000000     3.916000000
C     1.990000000     5.183000000     2.676000000
H     1.289000000     5.348000000     1.862000000
C     2.181000000     5.017000000     5.070000000
H     1.685000000     5.188000000     6.022000000
C     3.486000000     4.500000000     4.951000000
H     3.955000000     4.125000000     5.857000000
C     4.052000000     4.294000000     3.688000000
H     5.043000000     3.849000000     3.648000000
C     3.328000000     4.647000000     2.529000000
O     3.884000000     4.386000000     1.360000000
C     4.528000000     3.179000000     0.989000000
C     5.343000000     3.256000000    -0.084000000
H     5.889000000     4.181000000    -0.250000000
C     5.851000000     2.074000000    -0.666000000
O     6.810000000     2.130000000    -1.650000000
C     6.647000000     1.343000000    -2.810000000
C     5.444000000     1.349000000    -3.519000000
H     4.660000000     2.058000000    -3.265000000
C     7.591000000     0.409000000    -3.229000000
H     8.628000000     0.421000000    -2.903000000
C     7.419000000    -0.453000000    -4.361000000
H     8.223000000    -1.078000000    -4.741000000
C     6.171000000    -0.397000000    -5.090000000
H     6.058000000    -1.012000000    -5.978000000
C     5.236000000     0.537000000    -4.641000000
O     4.040000000     0.643000000    -5.346000000
C     2.882000000    -0.158000000    -5.377000000
C     1.819000000     0.158000000    -6.236000000
H     1.913000000     0.960000000    -6.963000000
C     0.706000000    -0.608000000    -6.289000000
O    -0.276000000    -0.312000000    -7.168000000
C    -1.606000000    -0.115000000    -6.901000000
C    -2.567000000    -1.027000000    -7.285000000
H    -2.262000000    -1.806000000    -7.979000000
C    -3.885000000    -1.051000000    -6.815000000
H    -4.538000000    -1.900000000    -7.003000000
C    -4.274000000     0.030000000    -5.989000000
H    -5.281000000     0.078000000    -5.582000000
C    -3.345000000     0.896000000    -5.438000000
C    -2.011000000     0.781000000    -5.900000000
H    -1.304000000     1.443000000    -5.405000000
C     0.997000000     0.972000000    -2.118000000
H     1.610000000     1.249000000    -2.971000000
C     1.483000000     0.024000000    -1.257000000
H     2.396000000    -0.507000000    -1.515000000
C     0.773000000    -0.321000000    -0.126000000
H     1.148000000    -1.099000000     0.550000000
C    -0.444000000     0.272000000     0.071000000
H    -1.083000000     0.056000000     0.923000000
C    -0.992000000     1.218000000    -0.836000000
H    -1.975000000     1.648000000    -0.658000000
C    -0.274000000     1.537000000    -1.980000000
C    -0.825000000     2.562000000    -2.928000000
O    -1.778000000     3.259000000    -2.558000000
O    -0.239000000     2.789000000    -3.992000000
O    -4.187000000     6.341000000    -0.415000000
H    -4.114000000     7.130000000     0.121000000
H    -4.895000000     6.533000000    -1.030000000
O     3.597000000     3.403000000    -8.076000000
H     4.548000000     3.294000000    -8.060000000
H     3.426000000     4.105000000    -7.449000000
O    -1.708000000     7.154000000    -2.636000000
H    -2.443000000     6.615000000    -2.928000000
H    -2.033000000     7.597000000    -1.852000000
O    -3.585000000     5.057000000    -3.535000000
H    -3.063000000     4.342000000    -3.171000000
H    -3.534000000     4.932000000    -4.483000000
O    -5.647000000     4.017000000    -7.256000000
H    -5.078000000     4.785000000    -7.201000000
H    -6.268000000     4.127000000    -6.537000000
O     1.656000000     8.221000000     0.735000000
H     2.559000000     7.958000000     0.560000000
H     1.130000000     7.472000000     0.454000000
O    -0.997000000     1.350000000    -9.454000000
H    -1.440000000     0.779000000   -10.082000000
H    -0.750000000     0.768000000    -8.735000000
O    -0.295000000     3.942000000    -9.594000000
H    -0.057000000     4.011000000    -8.669000000
H    -0.394000000     3.002000000    -9.746000000
O    -2.337000000     4.097000000    -5.769000000
H    -1.515000000     4.540000000    -5.982000000
H    -2.116000000     3.524000000    -5.034000000
O    -0.006000000     6.311000000    -0.051000000
H     0.335000000     5.926000000    -0.859000000
H    -0.599000000     5.646000000     0.299000000
O    -3.454000000     6.301000000    -7.279000000
H    -2.820000000     6.281000000    -7.995000000
H    -3.058000000     5.765000000    -6.592000000
O     3.659000000     5.182000000    -5.914000000
H     4.418000000     5.152000000    -5.331000000
H     2.990000000     4.667000000    -5.464000000
O     1.630000000     5.267000000    -2.024000000
H     0.957000000     5.199000000    -2.701000000
H     2.298000000     4.634000000    -2.286000000
O    -5.885000000     6.446000000    -2.693000000
H    -5.774000000     7.308000000    -3.093000000
H    -5.118000000     5.950000000    -2.976000000
O    -0.054000000     5.586000000    -4.155000000
H    -0.602000000     6.146000000    -3.604000000
H    -0.171000000     4.707000000    -3.794000000
O     2.278000000     3.118000000    -4.846000000
H     2.588000000     2.310000000    -5.256000000
H     1.349000000     2.961000000    -4.678000000
O    -2.149000000     4.413000000    -0.140000000
H    -1.912000000     4.069000000    -1.001000000
H    -2.910000000     4.970000000    -0.306000000
O     1.910000000     8.139000000    -2.585000000
H     1.143000000     7.572000000    -2.500000000
H     2.650000000     7.534000000    -2.635000000
O     0.627000000     5.153000000    -6.912000000
H     1.253000000     5.850000000    -7.109000000
H     0.410000000     5.281000000    -5.988000000
