215
-1462.55981
C     4.400000000    -1.463000000    -1.967000000
H     4.261000000    -2.510000000    -1.707000000
C     4.411000000    -0.542000000    -0.884000000
C     4.376000000     0.787000000    -1.152000000
H     4.181000000     1.554000000    -0.407000000
C     4.143000000    -0.983000000     0.573000000
O     4.285000000    -2.394000000     0.767000000
H     3.053000000    -0.836000000     0.547000000
O     4.896000000    -0.215000000     1.571000000
C     4.058000000     0.249000000     2.575000000
C     3.761000000     1.628000000     2.553000000
H     4.167000000     2.327000000     1.827000000
C     2.775000000     2.112000000     3.468000000
O     2.345000000     3.439000000     3.322000000
C     2.203000000     1.293000000     4.409000000
C     1.034000000     1.747000000     5.367000000
H     1.151000000     1.113000000     6.249000000
C    -0.313000000     1.614000000     4.674000000
C    -1.132000000     0.499000000     4.789000000
H    -0.795000000    -0.389000000     5.318000000
H     1.280000000     2.773000000     5.650000000
C     2.569000000    -0.118000000     4.463000000
H     2.044000000    -0.812000000     5.115000000
C     3.481000000    -0.625000000     3.490000000
C     3.784000000    -2.064000000     3.594000000
H     3.606000000    -2.441000000     4.603000000
H     4.828000000    -2.201000000     3.306000000
C     2.895000000    -2.924000000     2.678000000
C     1.667000000    -3.462000000     3.086000000
H     1.409000000    -3.180000000     4.103000000
C     3.242000000    -3.087000000     1.367000000
C     2.443000000    -3.813000000     0.460000000
H     2.797000000    -3.801000000    -0.568000000
C     1.199000000    -4.300000000     0.898000000
O     0.434000000    -4.949000000     0.067000000
C    -0.811000000    -4.298000000    -0.452000000
C    -1.053000000    -4.500000000    -1.882000000
C    -2.305000000    -4.415000000    -2.497000000
H    -3.101000000    -4.113000000    -1.821000000
C     0.016000000    -4.728000000    -2.768000000
H     1.011000000    -4.604000000    -2.349000000
O    -1.957000000    -4.629000000     0.359000000
H    -0.606000000    -3.233000000    -0.269000000
C     0.868000000    -4.182000000     2.244000000
C    -0.481000000    -4.786000000     2.760000000
H    -0.513000000    -5.023000000     3.825000000
H    -0.725000000    -5.752000000     2.312000000
C    -1.641000000    -3.897000000     2.640000000
C    -1.983000000    -2.965000000     3.671000000
H    -1.447000000    -2.941000000     4.617000000
C    -2.307000000    -3.807000000     1.386000000
C    -3.349000000    -2.915000000     1.190000000
H    -3.802000000    -2.897000000     0.202000000
C    -3.647000000    -1.982000000     2.189000000
O    -4.561000000    -1.014000000     1.785000000
C    -4.045000000     0.317000000     1.423000000
C    -4.718000000     0.935000000     0.197000000
C    -5.095000000     0.051000000    -0.861000000
H    -4.921000000    -1.003000000    -0.662000000
C    -4.885000000     2.326000000     0.010000000
H    -4.612000000     3.060000000     0.764000000
O    -3.887000000     1.270000000     2.487000000
H    -3.108000000     0.116000000     0.882000000
C    -2.954000000    -1.995000000     3.408000000
C    -3.193000000    -0.859000000     4.345000000
H    -3.108000000    -1.292000000     5.344000000
H    -4.257000000    -0.631000000     4.254000000
C    -2.266000000     0.321000000     4.040000000
C    -2.656000000     1.296000000     3.126000000
C    -1.853000000     2.476000000     2.993000000
H    -2.124000000     3.322000000     2.367000000
C    -0.728000000     2.618000000     3.761000000
O    -0.018000000     3.762000000     3.588000000
C     1.082000000     3.607000000     2.701000000
H     0.950000000     2.713000000     2.073000000
C     1.173000000     4.709000000     1.589000000
C     2.365000000     5.330000000     1.154000000
H     3.284000000     5.141000000     1.703000000
C    -0.054000000     5.094000000     0.967000000
H    -1.000000000     4.611000000     1.197000000
C    -0.052000000     5.886000000    -0.146000000
O    -1.124000000     6.070000000    -0.901000000
C     1.142000000     6.387000000    -0.642000000
H     1.168000000     6.927000000    -1.585000000
C     2.331000000     6.055000000    -0.041000000
O     3.488000000     6.591000000    -0.544000000
C     4.416000000     5.676000000    -0.915000000
C     4.130000000     4.632000000    -1.714000000
H     3.161000000     4.564000000    -2.200000000
C     5.654000000     5.713000000    -0.261000000
H     5.891000000     6.471000000     0.482000000
C     6.603000000     4.755000000    -0.637000000
H     7.604000000     4.720000000    -0.214000000
C     6.235000000     3.593000000    -1.346000000
H     6.952000000     2.844000000    -1.673000000
C     4.957000000     3.574000000    -1.896000000
O     4.626000000     2.595000000    -2.785000000
C     4.597000000     1.231000000    -2.470000000
C     4.631000000     0.360000000    -3.539000000
H     4.805000000     0.723000000    -4.549000000
C     4.554000000    -1.007000000    -3.283000000
O     4.558000000    -1.876000000    -4.377000000
C     4.019000000    -3.134000000    -4.408000000
C     2.731000000    -3.406000000    -4.674000000
H     2.021000000    -2.583000000    -4.698000000
C     4.919000000    -4.221000000    -4.139000000
H     5.941000000    -4.075000000    -3.798000000
C     4.484000000    -5.515000000    -4.245000000
H     5.182000000    -6.347000000    -4.205000000
C     3.116000000    -5.781000000    -4.499000000
H     2.775000000    -6.813000000    -4.500000000
C     2.229000000    -4.745000000    -4.782000000
O     0.882000000    -5.060000000    -5.017000000
C    -0.126000000    -4.748000000    -4.181000000
C    -1.418000000    -4.640000000    -4.706000000
H    -1.531000000    -4.720000000    -5.785000000
C    -2.425000000    -4.425000000    -3.856000000
O    -3.611000000    -4.158000000    -4.518000000
C    -4.701000000    -3.463000000    -4.029000000
C    -4.656000000    -2.069000000    -3.790000000
H    -3.804000000    -1.460000000    -4.083000000
C    -5.834000000    -4.179000000    -3.695000000
H    -5.787000000    -5.243000000    -3.911000000
C    -6.970000000    -3.498000000    -3.209000000
H    -7.847000000    -4.118000000    -3.049000000
C    -6.951000000    -2.097000000    -3.024000000
H    -7.806000000    -1.485000000    -2.749000000
C    -5.805000000    -1.441000000    -3.341000000
O    -5.711000000    -0.094000000    -3.269000000
C    -5.461000000     0.620000000    -2.111000000
C    -5.545000000     1.996000000    -2.258000000
H    -5.735000000     2.488000000    -3.208000000
C    -5.306000000     2.823000000    -1.167000000
O    -5.539000000     4.217000000    -1.383000000
C    -4.616000000     5.130000000    -0.772000000
C    -5.023000000     5.924000000     0.262000000
H    -6.079000000     5.877000000     0.517000000
C    -4.163000000     6.696000000     1.059000000
H    -4.604000000     7.213000000     1.908000000
C    -2.816000000     6.722000000     0.614000000
H    -2.064000000     7.280000000     1.166000000
C    -2.439000000     5.927000000    -0.491000000
C    -3.274000000     5.051000000    -1.098000000
H    -2.873000000     4.417000000    -1.884000000
C    -0.765000000    -0.476000000    -0.817000000
H    -1.495000000    -1.143000000    -1.269000000
C    -0.397000000    -0.515000000     0.561000000
H    -0.701000000    -1.267000000     1.285000000
C     0.607000000     0.310000000     0.994000000
H     1.071000000     0.221000000     1.918000000
C     1.140000000     1.332000000     0.167000000
H     1.929000000     1.946000000     0.594000000
C     0.827000000     1.307000000    -1.148000000
H     1.381000000     1.919000000    -1.855000000
C    -0.225000000     0.518000000    -1.644000000
C    -0.446000000     0.423000000    -3.162000000
O     0.283000000     1.018000000    -3.922000000
O    -1.360000000    -0.208000000    -3.665000000
O    -2.068000000     5.101000000    -4.343000000
H    -2.288000000     5.971000000    -4.678000000
H    -1.361000000     4.797000000    -4.912000000
O     2.423000000     3.227000000    -6.196000000
H     2.150000000     3.471000000    -5.311000000
H     3.333000000     3.518000000    -6.255000000
O    -3.606000000     3.894000000    -8.071000000
H    -3.687000000     4.841000000    -7.962000000
H    -3.952000000     3.528000000    -7.258000000
O    -2.373000000    -0.133000000    -8.066000000
H    -3.007000000     0.225000000    -7.445000000
H    -1.521000000     0.127000000    -7.716000000
O    -0.599000000    -1.977000000    -5.792000000
H    -0.753000000    -1.391000000    -5.051000000
H    -0.373000000    -2.816000000    -5.391000000
O    -3.167000000     0.949000000    -5.332000000
H    -2.785000000     0.322000000    -4.718000000
H    -2.413000000     1.409000000    -5.703000000
O     4.563000000    -1.893000000    -8.134000000
H     4.489000000    -1.880000000    -9.088000000
H     3.677000000    -1.707000000    -7.823000000
O    -2.905000000    -2.974000000    -8.363000000
H    -2.257000000    -3.656000000    -8.539000000
H    -2.387000000    -2.178000000    -8.242000000
O    -1.014000000     1.942000000    -6.421000000
H    -0.599000000     1.614000000    -5.624000000
H    -0.640000000     2.815000000    -6.544000000
O    -5.746000000    -0.067000000    -6.586000000
H    -5.750000000    -1.021000000    -6.510000000
H    -4.957000000     0.206000000    -6.117000000
O    -5.310000000    -3.021000000    -7.118000000
H    -4.620000000    -2.738000000    -7.719000000
H    -4.846000000    -3.252000000    -6.314000000
O     0.840000000     3.759000000    -3.808000000
H     0.024000000     4.016000000    -3.379000000
H     0.842000000     2.803000000    -3.764000000
O    -1.425000000     2.940000000    -9.422000000
H    -2.216000000     2.844000000    -8.891000000
H    -1.008000000     3.735000000    -9.088000000
O     2.412000000     0.510000000    -5.565000000
H     2.147000000     1.377000000    -5.873000000
H     1.897000000     0.370000000    -4.771000000
O    -4.417000000     3.575000000    -5.150000000
H    -4.251000000     2.680000000    -4.853000000
H    -3.593000000     4.036000000    -4.992000000
O     1.909000000    -1.534000000    -7.132000000
H     2.188000000    -1.003000000    -6.386000000
H     0.963000000    -1.627000000    -7.018000000
O    -0.393000000     4.713000000    -6.818000000
H     0.095000000     5.423000000    -6.400000000
H    -0.617000000     5.055000000    -7.684000000
O     5.518000000     1.038000000    -6.974000000
H     5.882000000     0.316000000    -7.485000000
H     4.658000000     0.724000000    -6.694000000
O     1.285000000     2.506000000    -8.677000000
H     0.380000000     2.194000000    -8.699000000
H     1.449000000     2.700000000    -7.754000000
