215
-1460.95698
C    -1.112000000     3.232000000     4.237000000
H    -0.196000000     2.999000000     4.773000000
C    -2.069000000     2.291000000     3.933000000
C    -3.252000000     2.659000000     3.291000000
H    -3.929000000     1.908000000     2.891000000
C    -1.755000000     0.840000000     4.122000000
O    -0.789000000     0.492000000     5.154000000
H    -1.209000000     0.598000000     3.198000000
O    -2.958000000     0.100000000     4.198000000
C    -3.059000000    -1.017000000     3.413000000
C    -3.675000000    -0.952000000     2.209000000
H    -4.099000000    -0.008000000     1.877000000
C    -3.714000000    -2.025000000     1.360000000
O    -4.308000000    -1.774000000     0.143000000
C    -3.201000000    -3.285000000     1.709000000
C    -3.282000000    -4.473000000     0.701000000
H    -3.153000000    -5.435000000     1.202000000
C    -2.243000000    -4.405000000    -0.444000000
C    -0.922000000    -4.993000000    -0.258000000
H    -0.758000000    -5.485000000     0.698000000
H    -4.226000000    -4.505000000     0.154000000
C    -2.521000000    -3.372000000     2.917000000
H    -1.941000000    -4.263000000     3.145000000
C    -2.446000000    -2.254000000     3.749000000
C    -1.454000000    -2.363000000     4.995000000
H    -1.329000000    -3.420000000     5.236000000
H    -1.761000000    -1.721000000     5.824000000
C    -0.117000000    -1.793000000     4.650000000
C     0.878000000    -2.675000000     4.144000000
H     0.633000000    -3.723000000     3.992000000
C     0.167000000    -0.389000000     4.873000000
C     1.470000000     0.056000000     4.596000000
H     1.786000000     1.093000000     4.677000000
C     2.386000000    -0.880000000     4.049000000
O     3.570000000    -0.269000000     3.506000000
C     3.534000000    -0.156000000     2.059000000
C     3.853000000     1.212000000     1.596000000
C     4.484000000     1.343000000     0.307000000
H     4.785000000     0.467000000    -0.262000000
C     3.744000000     2.362000000     2.371000000
H     3.437000000     2.392000000     3.414000000
O     4.411000000    -1.173000000     1.550000000
H     2.458000000    -0.239000000     1.849000000
C     2.152000000    -2.214000000     3.859000000
C     3.181000000    -3.179000000     3.303000000
H     3.020000000    -4.145000000     3.787000000
H     4.198000000    -2.989000000     3.652000000
C     3.048000000    -3.251000000     1.802000000
C     2.324000000    -4.228000000     1.187000000
H     2.037000000    -5.109000000     1.756000000
C     3.760000000    -2.342000000     1.026000000
C     3.630000000    -2.415000000    -0.356000000
H     4.088000000    -1.684000000    -1.018000000
C     2.898000000    -3.451000000    -0.963000000
O     2.889000000    -3.635000000    -2.306000000
C     1.791000000    -2.886000000    -3.001000000
C     2.227000000    -2.150000000    -4.229000000
C     3.481000000    -1.549000000    -4.295000000
H     4.181000000    -1.658000000    -3.471000000
C     1.349000000    -1.957000000    -5.338000000
H     0.350000000    -2.351000000    -5.170000000
O     0.788000000    -3.860000000    -3.332000000
H     1.400000000    -2.130000000    -2.304000000
C     2.248000000    -4.393000000    -0.195000000
C     1.422000000    -5.503000000    -0.788000000
H     1.287000000    -6.415000000    -0.204000000
H     1.803000000    -5.814000000    -1.763000000
C     0.097000000    -4.849000000    -1.170000000
C    -0.137000000    -4.097000000    -2.322000000
C    -1.349000000    -3.357000000    -2.427000000
H    -1.565000000    -2.738000000    -3.294000000
C    -2.404000000    -3.630000000    -1.570000000
O    -3.490000000    -2.733000000    -1.687000000
C    -3.433000000    -1.595000000    -1.022000000
H    -2.455000000    -1.322000000    -0.600000000
C    -3.763000000    -0.372000000    -1.857000000
C    -4.692000000     0.554000000    -1.396000000
H    -5.068000000     0.418000000    -0.385000000
C    -3.229000000    -0.150000000    -3.108000000
H    -2.532000000    -0.885000000    -3.504000000
C    -3.473000000     1.009000000    -3.817000000
O    -2.949000000     1.105000000    -5.104000000
C    -4.398000000     1.930000000    -3.393000000
H    -4.654000000     2.705000000    -4.110000000
C    -4.964000000     1.683000000    -2.143000000
O    -5.821000000     2.670000000    -1.763000000
C    -6.216000000     3.010000000    -0.462000000
C    -5.322000000     3.656000000     0.360000000
H    -4.300000000     3.760000000     0.003000000
C    -7.481000000     2.626000000     0.026000000
H    -8.136000000     2.070000000    -0.640000000
C    -7.824000000     2.971000000     1.374000000
H    -8.833000000     2.822000000     1.751000000
C    -6.782000000     3.440000000     2.178000000
H    -7.046000000     3.460000000     3.233000000
C    -5.546000000     3.813000000     1.691000000
O    -4.726000000     4.517000000     2.533000000
C    -3.516000000     4.019000000     3.054000000
C    -2.558000000     4.968000000     3.424000000
H    -2.920000000     5.992000000     3.482000000
C    -1.366000000     4.586000000     4.053000000
O    -0.542000000     5.488000000     4.563000000
C     0.872000000     5.334000000     4.609000000
C     1.607000000     4.894000000     3.541000000
H     1.023000000     4.510000000     2.708000000
C     1.498000000     5.715000000     5.789000000
H     0.874000000     6.085000000     6.598000000
C     2.917000000     5.643000000     5.903000000
H     3.364000000     5.856000000     6.871000000
C     3.672000000     5.431000000     4.756000000
H     4.751000000     5.562000000     4.759000000
C     3.020000000     5.045000000     3.521000000
O     3.793000000     4.815000000     2.429000000
C     3.922000000     3.593000000     1.772000000
C     4.300000000     3.709000000     0.464000000
H     4.172000000     4.718000000     0.081000000
C     4.435000000     2.614000000    -0.373000000
O     4.628000000     2.801000000    -1.744000000
C     5.441000000     2.052000000    -2.554000000
C     4.794000000     1.413000000    -3.651000000
H     3.762000000     1.575000000    -3.950000000
C     6.710000000     1.739000000    -2.189000000
H     7.115000000     2.244000000    -1.316000000
C     7.393000000     0.804000000    -2.936000000
H     8.334000000     0.386000000    -2.588000000
C     6.827000000     0.110000000    -4.016000000
H     7.387000000    -0.568000000    -4.655000000
C     5.593000000     0.602000000    -4.459000000
O     5.054000000    -0.156000000    -5.448000000
C     3.807000000    -0.787000000    -5.456000000
C     2.864000000    -0.535000000    -6.467000000
H     3.150000000     0.177000000    -7.237000000
C     1.635000000    -1.192000000    -6.441000000
O     0.703000000    -0.989000000    -7.404000000
C    -0.657000000    -0.871000000    -7.120000000
C    -1.544000000    -1.636000000    -7.865000000
H    -1.228000000    -2.347000000    -8.624000000
C    -2.938000000    -1.540000000    -7.554000000
H    -3.662000000    -2.174000000    -8.058000000
C    -3.312000000    -0.612000000    -6.607000000
H    -4.380000000    -0.437000000    -6.508000000
C    -2.451000000     0.175000000    -5.974000000
C    -1.081000000     0.104000000    -6.241000000
H    -0.465000000     0.860000000    -5.761000000
C     0.892000000     1.447000000    -1.755000000
H     1.445000000     1.856000000    -2.597000000
C     1.325000000     0.260000000    -1.143000000
H     2.270000000    -0.215000000    -1.394000000
C     0.514000000    -0.273000000    -0.111000000
H     0.852000000    -1.230000000     0.333000000
C    -0.570000000     0.472000000     0.334000000
H    -1.180000000     0.173000000     1.182000000
C    -0.982000000     1.645000000    -0.278000000
H    -1.836000000     2.158000000     0.157000000
C    -0.263000000     2.159000000    -1.333000000
C    -0.657000000     3.470000000    -2.059000000
O    -1.734000000     3.995000000    -1.921000000
O     0.107000000     4.087000000    -2.755000000
O    -2.529000000     7.407000000     0.514000000
H    -3.202000000     7.907000000     0.977000000
H    -1.755000000     7.970000000     0.536000000
O     0.983000000     9.268000000    -2.483000000
H     1.200000000     8.347000000    -2.627000000
H     1.348000000     9.722000000    -3.243000000
O    -2.124000000     8.966000000    -3.703000000
H    -1.505000000     8.388000000    -4.149000000
H    -2.401000000     8.471000000    -2.932000000
O     1.094000000     6.992000000    -4.377000000
H     1.038000000     6.934000000    -5.331000000
H     1.015000000     6.086000000    -4.078000000
O    -4.189000000     4.956000000    -2.209000000
H    -4.695000000     4.176000000    -1.980000000
H    -3.278000000     4.700000000    -2.065000000
O     2.827000000     8.361000000     1.560000000
H     3.451000000     8.249000000     0.843000000
H     2.120000000     7.747000000     1.361000000
O    -1.319000000     3.935000000    -7.316000000
H    -1.569000000     3.707000000    -6.420000000
H    -2.141000000     4.188000000    -7.737000000
O    -0.067000000     8.885000000     0.097000000
H     0.131000000     9.127000000    -0.807000000
H     0.532000000     8.163000000     0.289000000
O    -1.778000000     4.080000000    -4.663000000
H    -1.131000000     4.248000000    -3.978000000
H    -2.440000000     3.535000000    -4.239000000
O     1.070000000     6.509000000     0.279000000
H     1.447000000     6.310000000    -0.578000000
H     0.390000000     5.846000000     0.400000000
O    -2.346000000     6.450000000    -5.529000000
H    -2.107000000     5.567000000    -5.248000000
H    -1.524000000     6.834000000    -5.835000000
O     3.792000000     3.138000000    -6.300000000
H     4.391000000     3.644000000    -5.751000000
H     2.920000000     3.436000000    -6.041000000
O     2.661000000     5.296000000    -2.019000000
H     2.273000000     4.490000000    -2.360000000
H     2.612000000     5.913000000    -2.748000000
O    -5.111000000     6.886000000    -0.541000000
H    -4.243000000     7.053000000    -0.174000000
H    -4.942000000     6.369000000    -1.328000000
O    -4.916000000     7.206000000    -4.575000000
H    -4.007000000     7.054000000    -4.836000000
H    -5.012000000     6.725000000    -3.754000000
O    -1.696000000     6.791000000    -2.033000000
H    -2.095000000     6.638000000    -1.176000000
H    -1.186000000     5.999000000    -2.204000000
O     1.528000000     4.119000000    -5.047000000
H     1.110000000     3.913000000    -4.211000000
H     0.826000000     4.040000000    -5.693000000
O    -1.610000000     4.663000000     0.653000000
H    -1.982000000     4.397000000    -0.188000000
H    -2.000000000     5.519000000     0.827000000
O     0.076000000     6.426000000    -6.865000000
H    -0.209000000     7.061000000    -7.522000000
H    -0.350000000     5.608000000    -7.121000000
