215
-1458.90582
C    -0.016000000     2.608000000     4.926000000
H     0.835000000     2.238000000     5.492000000
C    -0.985000000     1.688000000     4.418000000
C    -2.051000000     2.240000000     3.718000000
H    -2.712000000     1.525000000     3.235000000
C    -0.714000000     0.217000000     4.374000000
O     0.338000000    -0.212000000     5.324000000
H    -0.309000000    -0.024000000     3.381000000
O    -1.929000000    -0.474000000     4.720000000
C    -2.319000000    -1.524000000     3.914000000
C    -3.268000000    -1.251000000     2.908000000
H    -3.834000000    -0.341000000     3.089000000
C    -3.428000000    -2.148000000     1.849000000
O    -4.200000000    -1.648000000     0.818000000
C    -2.723000000    -3.325000000     1.834000000
C    -2.967000000    -4.374000000     0.790000000
H    -2.647000000    -5.301000000     1.271000000
C    -2.216000000    -4.116000000    -0.520000000
C    -1.043000000    -4.821000000    -0.695000000
H    -0.711000000    -5.500000000     0.086000000
H    -4.017000000    -4.394000000     0.489000000
C    -1.785000000    -3.612000000     2.892000000
H    -1.181000000    -4.515000000     2.882000000
C    -1.545000000    -2.714000000     3.847000000
C    -0.459000000    -2.999000000     4.813000000
H    -0.384000000    -4.072000000     5.000000000
H    -0.751000000    -2.520000000     5.750000000
C     0.844000000    -2.401000000     4.361000000
C     1.678000000    -3.171000000     3.645000000
H     1.333000000    -4.173000000     3.403000000
C     1.200000000    -1.049000000     4.706000000
C     2.358000000    -0.502000000     4.139000000
H     2.608000000     0.532000000     4.365000000
C     3.131000000    -1.261000000     3.313000000
O     4.180000000    -0.683000000     2.621000000
C     3.940000000    -0.368000000     1.303000000
C     4.287000000     1.129000000     0.859000000
C     4.373000000     1.442000000    -0.461000000
H     4.285000000     0.723000000    -1.272000000
C     4.379000000     2.144000000     1.852000000
H     4.223000000     1.756000000     2.855000000
O     4.706000000    -1.341000000     0.457000000
H     2.870000000    -0.523000000     1.101000000
C     2.826000000    -2.652000000     3.067000000
C     3.687000000    -3.557000000     2.110000000
H     3.498000000    -4.573000000     2.462000000
H     4.710000000    -3.341000000     2.426000000
C     3.382000000    -3.416000000     0.646000000
C     2.454000000    -4.305000000     0.090000000
H     2.133000000    -5.131000000     0.720000000
C     3.947000000    -2.295000000    -0.093000000
C     3.593000000    -2.229000000    -1.421000000
H     3.906000000    -1.385000000    -2.031000000
C     2.679000000    -3.173000000    -2.002000000
O     2.298000000    -2.853000000    -3.254000000
C     0.978000000    -2.281000000    -3.551000000
C     1.020000000    -1.306000000    -4.723000000
C     2.197000000    -0.661000000    -4.980000000
H     3.085000000    -0.849000000    -4.383000000
C    -0.111000000    -1.024000000    -5.488000000
H    -1.030000000    -1.559000000    -5.260000000
O     0.098000000    -3.365000000    -3.807000000
H     0.616000000    -1.672000000    -2.709000000
C     2.149000000    -4.212000000    -1.276000000
C     1.149000000    -5.182000000    -1.906000000
H     1.192000000    -6.171000000    -1.446000000
H     1.442000000    -5.473000000    -2.917000000
C    -0.234000000    -4.539000000    -1.809000000
C    -0.759000000    -3.699000000    -2.766000000
C    -1.975000000    -3.091000000    -2.729000000
H    -2.349000000    -2.400000000    -3.481000000
C    -2.736000000    -3.329000000    -1.545000000
O    -3.854000000    -2.616000000    -1.347000000
C    -3.766000000    -1.418000000    -0.517000000
H    -2.750000000    -1.016000000    -0.391000000
C    -4.535000000    -0.214000000    -1.078000000
C    -5.194000000     0.629000000    -0.272000000
H    -5.273000000     0.506000000     0.805000000
C    -4.382000000     0.037000000    -2.466000000
H    -3.727000000    -0.534000000    -3.119000000
C    -5.169000000     1.077000000    -3.056000000
O    -5.097000000     1.467000000    -4.357000000
C    -5.915000000     1.884000000    -2.208000000
H    -6.462000000     2.683000000    -2.703000000
C    -5.935000000     1.655000000    -0.818000000
O    -6.687000000     2.431000000     0.005000000
C    -6.178000000     2.902000000     1.236000000
C    -4.881000000     3.411000000     1.321000000
H    -4.193000000     3.472000000     0.482000000
C    -7.062000000     2.875000000     2.297000000
H    -8.002000000     2.331000000     2.258000000
C    -6.578000000     3.255000000     3.504000000
H    -7.175000000     3.009000000     4.378000000
C    -5.259000000     3.724000000     3.646000000
H    -4.849000000     3.990000000     4.617000000
C    -4.406000000     3.761000000     2.582000000
O    -3.184000000     4.174000000     2.773000000
C    -2.176000000     3.635000000     3.546000000
C    -1.214000000     4.483000000     4.024000000
H    -1.181000000     5.551000000     3.826000000
C    -0.099000000     3.964000000     4.656000000
O     0.822000000     4.756000000     5.212000000
C     2.145000000     4.555000000     5.046000000
C     2.766000000     4.610000000     3.763000000
H     2.197000000     4.867000000     2.873000000
C     2.902000000     4.252000000     6.176000000
H     2.534000000     4.049000000     7.178000000
C     4.288000000     4.033000000     6.009000000
H     4.884000000     3.710000000     6.859000000
C     4.923000000     4.165000000     4.790000000
H     5.985000000     3.935000000     4.764000000
C     4.168000000     4.372000000     3.665000000
O     4.708000000     4.475000000     2.422000000
C     4.600000000     3.456000000     1.491000000
C     4.711000000     3.755000000     0.159000000
H     4.864000000     4.791000000    -0.132000000
C     4.633000000     2.753000000    -0.838000000
O     4.787000000     3.223000000    -2.162000000
C     5.049000000     2.412000000    -3.242000000
C     4.008000000     2.022000000    -4.090000000
H     3.038000000     2.489000000    -3.938000000
C     6.341000000     1.868000000    -3.412000000
H     7.068000000     2.152000000    -2.656000000
C     6.545000000     0.944000000    -4.489000000
H     7.506000000     0.451000000    -4.617000000
C     5.554000000     0.809000000    -5.445000000
H     5.678000000     0.271000000    -6.381000000
C     4.266000000     1.302000000    -5.272000000
O     3.388000000     0.940000000    -6.245000000
C     2.202000000     0.331000000    -5.953000000
C     1.062000000     0.756000000    -6.605000000
H     1.100000000     1.654000000    -7.216000000
C    -0.087000000     0.099000000    -6.345000000
O    -1.194000000     0.366000000    -7.075000000
C    -2.480000000     0.065000000    -6.588000000
C    -3.167000000    -1.019000000    -7.128000000
H    -2.678000000    -1.708000000    -7.812000000
C    -4.522000000    -1.146000000    -6.830000000
H    -5.069000000    -1.932000000    -7.344000000
C    -5.168000000    -0.272000000    -5.965000000
H    -6.232000000    -0.372000000    -5.766000000
C    -4.449000000     0.782000000    -5.365000000
C    -3.102000000     0.970000000    -5.700000000
H    -2.543000000     1.777000000    -5.233000000
C     0.588000000     1.866000000    -1.618000000
H     1.369000000     2.120000000    -2.331000000
C     0.663000000     0.823000000    -0.745000000
H     1.554000000     0.202000000    -0.704000000
C    -0.342000000     0.488000000     0.195000000
H    -0.139000000    -0.229000000     0.981000000
C    -1.522000000     1.224000000     0.205000000
H    -2.301000000     0.968000000     0.919000000
C    -1.574000000     2.309000000    -0.662000000
H    -2.443000000     2.958000000    -0.595000000
C    -0.569000000     2.668000000    -1.609000000
C    -0.767000000     3.871000000    -2.493000000
O    -1.825000000     4.461000000    -2.376000000
O     0.134000000     4.268000000    -3.231000000
O     0.292000000     8.974000000    -1.025000000
H     0.443000000     9.588000000    -0.306000000
H     0.969000000     8.306000000    -0.916000000
O    -1.695000000     7.932000000     1.879000000
H    -1.722000000     8.861000000     1.651000000
H    -2.020000000     7.484000000     1.098000000
O     2.156000000     8.876000000    -3.138000000
H     2.126000000     9.627000000    -3.731000000
H     1.435000000     9.025000000    -2.526000000
O    -1.692000000     9.019000000    -6.502000000
H    -1.800000000     9.907000000    -6.161000000
H    -1.185000000     8.565000000    -5.829000000
O     4.445000000     6.646000000    -2.829000000
H     3.998000000     6.235000000    -2.089000000
H     3.807000000     7.266000000    -3.181000000
O    -2.396000000     6.012000000    -0.185000000
H    -3.270000000     6.131000000    -0.558000000
H    -1.898000000     5.576000000    -0.877000000
O     2.380000000     7.526000000     1.835000000
H     2.255000000     8.334000000     1.336000000
H     2.195000000     6.827000000     1.208000000
O     1.285000000     7.289000000    -5.215000000
H     1.624000000     7.858000000    -4.524000000
H     0.438000000     6.990000000    -4.884000000
O    -4.765000000     6.803000000    -0.888000000
H    -5.439000000     6.646000000    -0.227000000
H    -4.802000000     7.746000000    -1.048000000
O    -4.100000000     5.096000000    -3.001000000
H    -3.333000000     4.582000000    -2.748000000
H    -4.155000000     5.785000000    -2.338000000
O     1.491000000     6.107000000    -0.569000000
H     1.755000000     5.283000000    -0.978000000
H     0.637000000     5.919000000    -0.180000000
O    -3.300000000     5.877000000    -5.543000000
H    -3.689000000     5.494000000    -4.757000000
H    -3.399000000     5.200000000    -6.213000000
O     2.246000000     4.749000000    -4.919000000
H     1.993000000     5.671000000    -4.973000000
H     1.624000000     4.367000000    -4.299000000
O     4.813000000     5.045000000    -6.185000000
H     5.341000000     5.426000000    -5.483000000
H     4.015000000     4.747000000    -5.748000000
O    -1.885000000     8.829000000    -2.544000000
H    -1.696000000     8.180000000    -3.222000000
H    -1.051000000     8.954000000    -2.092000000
O    -6.496000000     6.172000000    -3.831000000
H    -5.789000000     5.579000000    -3.577000000
H    -7.053000000     6.228000000    -3.054000000
O    -1.246000000     6.611000000    -4.173000000
H    -0.984000000     5.831000000    -3.685000000
H    -1.988000000     6.324000000    -4.704000000
O    -0.521000000     4.213000000    -7.459000000
H    -1.389000000     3.830000000    -7.584000000
H    -0.234000000     3.884000000    -6.607000000
O    -0.088000000     4.537000000     1.173000000
H    -0.894000000     5.053000000     1.147000000
H    -0.326000000     3.701000000     0.772000000
