215
-1445.50094
C     0.543000000     3.684000000     4.051000000
H     1.481000000     3.229000000     4.360000000
C    -0.546000000     2.849000000     3.744000000
C    -1.645000000     3.466000000     3.198000000
H    -2.549000000     2.930000000     2.918000000
C    -0.578000000     1.334000000     3.921000000
O     0.484000000     0.992000000     4.825000000
H    -0.397000000     0.760000000     3.000000000
O    -1.790000000     0.959000000     4.595000000
C    -2.419000000    -0.239000000     4.141000000
C    -3.464000000    -0.114000000     3.248000000
H    -3.873000000     0.866000000     3.017000000
C    -3.921000000    -1.240000000     2.543000000
O    -4.720000000    -0.997000000     1.471000000
C    -3.366000000    -2.517000000     2.711000000
C    -3.856000000    -3.734000000     2.024000000
H    -3.601000000    -4.696000000     2.473000000
C    -3.120000000    -3.872000000     0.689000000
C    -1.937000000    -4.626000000     0.600000000
H    -1.478000000    -5.087000000     1.470000000
H    -4.925000000    -3.719000000     1.803000000
C    -2.369000000    -2.647000000     3.712000000
H    -1.838000000    -3.585000000     3.854000000
C    -1.847000000    -1.503000000     4.321000000
C    -0.703000000    -1.737000000     5.298000000
H    -0.784000000    -2.739000000     5.726000000
H    -0.937000000    -1.119000000     6.168000000
C     0.698000000    -1.441000000     4.770000000
C     1.428000000    -2.526000000     4.335000000
H     1.021000000    -3.527000000     4.457000000
C     1.176000000    -0.173000000     4.585000000
C     2.371000000     0.047000000     3.901000000
H     2.730000000     1.055000000     3.713000000
C     3.110000000    -1.027000000     3.399000000
O     4.152000000    -0.691000000     2.524000000
C     3.890000000    -0.746000000     1.128000000
C     4.470000000     0.439000000     0.393000000
C     4.716000000     0.333000000    -0.998000000
H     4.548000000    -0.619000000    -1.493000000
C     4.588000000     1.664000000     0.963000000
H     4.271000000     1.798000000     1.994000000
O     4.449000000    -2.061000000     0.721000000
H     2.804000000    -0.712000000     0.954000000
C     2.590000000    -2.294000000     3.601000000
C     3.278000000    -3.490000000     2.909000000
H     3.075000000    -4.366000000     3.527000000
H     4.348000000    -3.273000000     2.944000000
C     2.795000000    -3.616000000     1.473000000
C     1.646000000    -4.442000000     1.189000000
H     0.997000000    -4.874000000     1.947000000
C     3.503000000    -3.012000000     0.464000000
C     3.055000000    -3.196000000    -0.844000000
H     3.569000000    -2.655000000    -1.634000000
C     1.960000000    -3.978000000    -1.164000000
O     1.599000000    -4.146000000    -2.475000000
C     0.514000000    -3.397000000    -2.956000000
C     0.797000000    -2.661000000    -4.250000000
C     2.061000000    -2.613000000    -4.822000000
H     2.920000000    -3.158000000    -4.439000000
C    -0.213000000    -1.910000000    -4.798000000
H    -1.218000000    -1.934000000    -4.386000000
O    -0.753000000    -4.089000000    -2.859000000
H     0.318000000    -2.598000000    -2.225000000
C     1.308000000    -4.639000000    -0.173000000
C     0.143000000    -5.526000000    -0.505000000
H    -0.052000000    -6.217000000     0.318000000
H     0.440000000    -6.086000000    -1.395000000
C    -1.214000000    -4.781000000    -0.585000000
C    -1.582000000    -4.086000000    -1.743000000
C    -2.755000000    -3.325000000    -1.686000000
H    -3.134000000    -2.800000000    -2.559000000
C    -3.501000000    -3.194000000    -0.496000000
O    -4.498000000    -2.345000000    -0.446000000
C    -4.243000000    -1.078000000     0.086000000
H    -3.147000000    -0.989000000     0.114000000
C    -4.644000000     0.118000000    -0.817000000
C    -5.276000000     1.240000000    -0.154000000
H    -5.562000000     1.123000000     0.888000000
C    -4.243000000     0.274000000    -2.177000000
H    -3.624000000    -0.481000000    -2.653000000
C    -4.600000000     1.448000000    -2.870000000
O    -4.397000000     1.715000000    -4.229000000
C    -5.230000000     2.450000000    -2.203000000
H    -5.465000000     3.364000000    -2.743000000
C    -5.564000000     2.373000000    -0.840000000
O    -6.168000000     3.448000000    -0.281000000
C    -5.691000000     3.972000000     0.880000000
C    -4.315000000     4.307000000     1.062000000
H    -3.622000000     4.193000000     0.233000000
C    -6.518000000     4.333000000     1.924000000
H    -7.573000000     4.074000000     1.883000000
C    -6.102000000     5.030000000     3.007000000
H    -6.879000000     5.304000000     3.716000000
C    -4.768000000     5.356000000     3.183000000
H    -4.336000000     5.899000000     4.020000000
C    -3.881000000     5.012000000     2.189000000
O    -2.640000000     5.499000000     2.189000000
C    -1.599000000     4.804000000     2.759000000
C    -0.521000000     5.642000000     3.145000000
H    -0.536000000     6.671000000     2.794000000
C     0.549000000     5.045000000     3.754000000
O     1.645000000     5.751000000     3.919000000
C     2.913000000     5.264000000     3.708000000
C     3.250000000     4.929000000     2.387000000
H     2.529000000     5.229000000     1.631000000
C     3.852000000     4.992000000     4.688000000
H     3.704000000     5.371000000     5.696000000
C     5.038000000     4.327000000     4.399000000
H     5.734000000     4.033000000     5.181000000
C     5.364000000     4.033000000     3.095000000
H     6.351000000     3.627000000     2.887000000
C     4.488000000     4.347000000     2.088000000
O     4.830000000     4.145000000     0.764000000
C     4.909000000     2.825000000     0.177000000
C     5.019000000     2.645000000    -1.182000000
H     5.375000000     3.467000000    -1.797000000
C     4.949000000     1.385000000    -1.803000000
O     5.051000000     1.422000000    -3.184000000
C     5.426000000     0.404000000    -3.991000000
C     4.396000000    -0.145000000    -4.668000000
H     3.374000000     0.147000000    -4.441000000
C     6.752000000     0.146000000    -4.309000000
H     7.529000000     0.563000000    -3.674000000
C     6.959000000    -0.844000000    -5.275000000
H     7.964000000    -1.163000000    -5.537000000
C     5.912000000    -1.457000000    -5.877000000
H     6.157000000    -2.269000000    -6.556000000
C     4.568000000    -1.072000000    -5.659000000
O     3.533000000    -1.702000000    -6.431000000
C     2.260000000    -1.884000000    -5.981000000
C     1.250000000    -1.162000000    -6.579000000
H     1.467000000    -0.599000000    -7.483000000
C    -0.048000000    -1.272000000    -6.012000000
O    -1.130000000    -0.634000000    -6.658000000
C    -2.426000000    -0.452000000    -6.266000000
C    -3.325000000    -1.423000000    -6.624000000
H    -3.050000000    -2.269000000    -7.247000000
C    -4.683000000    -1.293000000    -6.256000000
H    -5.416000000    -2.062000000    -6.487000000
C    -5.114000000    -0.180000000    -5.499000000
H    -6.147000000    -0.035000000    -5.193000000
C    -4.128000000     0.733000000    -5.121000000
C    -2.801000000     0.643000000    -5.541000000
H    -2.011000000     1.335000000    -5.264000000
C     0.289000000     0.161000000    -1.583000000
H     1.108000000    -0.133000000    -2.234000000
C     0.056000000    -0.600000000    -0.450000000
H     0.570000000    -1.516000000    -0.171000000
C    -0.873000000    -0.165000000     0.472000000
H    -0.999000000    -0.603000000     1.533000000
C    -1.667000000     0.946000000     0.168000000
H    -2.405000000     1.260000000     0.902000000
C    -1.394000000     1.691000000    -1.012000000
H    -1.985000000     2.575000000    -1.237000000
C    -0.382000000     1.344000000    -1.849000000
C     0.024000000     2.094000000    -3.006000000
O    -0.414000000     3.255000000    -3.062000000
O     0.802000000     1.666000000    -3.833000000
O     0.108000000     5.934000000    -7.225000000
H    -0.449000000     5.496000000    -6.581000000
H     0.500000000     6.664000000    -6.745000000
O     6.265000000     5.713000000    -4.165000000
H     5.577000000     5.138000000    -4.502000000
H     6.868000000     5.124000000    -3.712000000
O    -1.619000000     7.148000000    -0.175000000
H    -1.785000000     6.532000000    -0.889000000
H    -1.501000000     6.593000000     0.596000000
O     3.114000000     6.718000000    -3.160000000
H     2.697000000     6.058000000    -3.715000000
H     2.767000000     6.546000000    -2.284000000
O     2.267000000     4.384000000    -4.927000000
H     1.584000000     4.147000000    -4.300000000
H     1.904000000     4.142000000    -5.779000000
O     0.002000000     3.159000000    -8.399000000
H    -0.370000000     3.853000000    -7.854000000
H    -0.738000000     2.583000000    -8.590000000
O     1.677000000     5.960000000    -0.922000000
H     1.113000000     6.634000000    -0.542000000
H     1.372000000     5.143000000    -0.527000000
O    -4.082000000     4.957000000    -5.033000000
H    -3.616000000     4.901000000    -4.199000000
H    -4.820000000     4.356000000    -4.936000000
O    -1.904000000     5.282000000    -2.135000000
H    -1.655000000     5.929000000    -2.795000000
H    -1.411000000     4.496000000    -2.373000000
O    -2.304000000     1.928000000    -8.818000000
H    -2.759000000     1.171000000    -8.448000000
H    -2.991000000     2.428000000    -9.258000000
O     2.520000000     4.230000000    -9.493000000
H     1.829000000     4.252000000    -8.830000000
H     3.258000000     3.806000000    -9.056000000
O     4.721000000     3.446000000    -4.984000000
H     3.945000000     3.996000000    -5.088000000
H     4.383000000     2.617000000    -4.644000000
O     4.721000000     7.209000000    -0.587000000
H     4.998000000     6.556000000     0.056000000
H     4.652000000     6.721000000    -1.408000000
O     3.886000000     1.814000000    -7.657000000
H     3.059000000     1.844000000    -7.177000000
H     4.160000000     0.898000000    -7.606000000
O    -1.707000000     7.428000000    -3.998000000
H    -1.361000000     8.320000000    -4.019000000
H    -2.592000000     7.505000000    -4.352000000
O    -0.996000000     4.180000000    -5.455000000
H    -0.472000000     3.958000000    -4.684000000
H    -1.899000000     4.176000000    -5.140000000
O     1.712000000     1.764000000    -6.258000000
H     1.506000000     1.600000000    -5.337000000
H     0.893000000     2.090000000    -6.632000000
O     1.049000000     3.487000000     0.212000000
H     0.447000000     2.758000000     0.362000000
H     1.355000000     3.364000000    -0.687000000
O    -0.223000000     9.642000000    -0.911000000
H     0.570000000     9.623000000    -0.374000000
H    -0.402000000     8.722000000    -1.105000000
