215
-1452.92632
C    -0.680000000     2.836000000     4.592000000
H     0.306000000     2.417000000     4.774000000
C    -1.654000000     1.900000000     4.182000000
C    -2.965000000     2.354000000     4.150000000
H    -3.684000000     1.548000000     4.029000000
C    -1.425000000     0.436000000     3.993000000
O    -0.188000000     0.112000000     4.758000000
H    -1.278000000     0.364000000     2.905000000
O    -2.519000000    -0.415000000     4.396000000
C    -2.748000000    -1.480000000     3.585000000
C    -3.562000000    -1.325000000     2.496000000
H    -4.034000000    -0.349000000     2.415000000
C    -3.744000000    -2.290000000     1.547000000
O    -4.489000000    -1.887000000     0.449000000
C    -3.018000000    -3.453000000     1.669000000
C    -3.140000000    -4.421000000     0.531000000
H    -2.853000000    -5.378000000     0.971000000
C    -2.162000000    -4.202000000    -0.628000000
C    -0.878000000    -4.833000000    -0.662000000
H    -0.584000000    -5.418000000     0.205000000
H    -4.154000000    -4.728000000     0.266000000
C    -2.117000000    -3.636000000     2.720000000
H    -1.543000000    -4.559000000     2.709000000
C    -1.926000000    -2.574000000     3.662000000
C    -0.894000000    -2.665000000     4.765000000
H    -0.890000000    -3.678000000     5.173000000
H    -1.165000000    -2.190000000     5.711000000
C     0.452000000    -2.204000000     4.293000000
C     1.302000000    -3.054000000     3.660000000
H     1.213000000    -4.130000000     3.790000000
C     0.710000000    -0.892000000     4.329000000
C     1.916000000    -0.439000000     3.866000000
H     2.008000000     0.640000000     3.963000000
C     2.848000000    -1.276000000     3.299000000
O     4.018000000    -0.673000000     2.821000000
C     4.046000000    -0.514000000     1.389000000
C     4.383000000     0.978000000     1.086000000
C     4.872000000     1.334000000    -0.202000000
H     5.101000000     0.508000000    -0.870000000
C     4.034000000     2.013000000     1.987000000
H     3.675000000     1.735000000     2.974000000
O     4.882000000    -1.481000000     0.801000000
H     3.006000000    -0.676000000     1.070000000
C     2.536000000    -2.589000000     3.138000000
C     3.524000000    -3.592000000     2.529000000
H     3.426000000    -4.648000000     2.791000000
H     4.538000000    -3.257000000     2.753000000
C     3.534000000    -3.599000000     0.994000000
C     2.721000000    -4.532000000     0.341000000
H     2.009000000    -5.090000000     0.944000000
C     4.259000000    -2.587000000     0.231000000
C     4.103000000    -2.524000000    -1.139000000
H     4.498000000    -1.660000000    -1.668000000
C     3.234000000    -3.444000000    -1.788000000
O     2.818000000    -3.218000000    -3.093000000
C     1.641000000    -2.519000000    -3.468000000
C     1.788000000    -1.535000000    -4.589000000
C     2.994000000    -0.778000000    -4.731000000
H     3.891000000    -0.920000000    -4.135000000
C     0.667000000    -1.189000000    -5.357000000
H    -0.279000000    -1.710000000    -5.240000000
O     0.594000000    -3.430000000    -3.793000000
H     1.350000000    -1.923000000    -2.591000000
C     2.584000000    -4.484000000    -1.062000000
C     1.408000000    -5.300000000    -1.716000000
H     1.349000000    -6.281000000    -1.239000000
H     1.743000000    -5.487000000    -2.738000000
C     0.075000000    -4.567000000    -1.722000000
C    -0.270000000    -3.732000000    -2.749000000
C    -1.524000000    -2.974000000    -2.668000000
H    -1.687000000    -2.068000000    -3.247000000
C    -2.423000000    -3.205000000    -1.591000000
O    -3.616000000    -2.475000000    -1.625000000
C    -3.716000000    -1.402000000    -0.703000000
H    -2.712000000    -1.122000000    -0.351000000
C    -4.296000000    -0.147000000    -1.395000000
C    -4.869000000     0.871000000    -0.592000000
H    -5.025000000     0.725000000     0.474000000
C    -4.006000000     0.124000000    -2.734000000
H    -3.485000000    -0.642000000    -3.302000000
C    -4.373000000     1.338000000    -3.354000000
O    -4.190000000     1.655000000    -4.684000000
C    -4.919000000     2.366000000    -2.533000000
H    -5.204000000     3.317000000    -2.977000000
C    -5.141000000     2.167000000    -1.155000000
O    -5.826000000     3.099000000    -0.450000000
C    -6.062000000     3.109000000     0.924000000
C    -5.114000000     3.553000000     1.817000000
H    -4.143000000     3.903000000     1.475000000
C    -7.370000000     2.880000000     1.352000000
H    -8.140000000     2.688000000     0.609000000
C    -7.738000000     2.814000000     2.647000000
H    -8.757000000     2.637000000     2.981000000
C    -6.773000000     3.266000000     3.600000000
H    -6.944000000     3.300000000     4.673000000
C    -5.506000000     3.713000000     3.161000000
O    -4.563000000     4.171000000     4.082000000
C    -3.230000000     3.737000000     4.155000000
C    -2.181000000     4.629000000     4.411000000
H    -2.404000000     5.678000000     4.592000000
C    -0.902000000     4.177000000     4.740000000
O     0.066000000     5.065000000     5.191000000
C     1.422000000     4.804000000     5.010000000
C     2.054000000     4.720000000     3.728000000
H     1.534000000     5.128000000     2.865000000
C     2.168000000     4.512000000     6.165000000
H     1.621000000     4.452000000     7.102000000
C     3.491000000     4.331000000     6.052000000
H     4.130000000     4.137000000     6.909000000
C     4.088000000     4.157000000     4.811000000
H     5.161000000     3.992000000     4.757000000
C     3.401000000     4.379000000     3.650000000
O     4.096000000     4.394000000     2.450000000
C     4.198000000     3.350000000     1.602000000
C     4.728000000     3.630000000     0.324000000
H     4.694000000     4.672000000     0.016000000
C     4.986000000     2.675000000    -0.592000000
O     5.391000000     3.103000000    -1.829000000
C     5.598000000     2.232000000    -2.854000000
C     4.657000000     2.108000000    -3.925000000
H     3.859000000     2.846000000    -3.934000000
C     6.706000000     1.352000000    -2.802000000
H     7.370000000     1.335000000    -1.942000000
C     7.009000000     0.494000000    -3.827000000
H     7.707000000    -0.319000000    -3.647000000
C     6.167000000     0.369000000    -4.980000000
H     6.331000000    -0.406000000    -5.724000000
C     5.002000000     1.194000000    -4.973000000
O     4.092000000     1.038000000    -5.953000000
C     3.004000000     0.259000000    -5.726000000
C     1.878000000     0.568000000    -6.488000000
H     1.889000000     1.324000000    -7.268000000
C     0.669000000    -0.112000000    -6.289000000
O    -0.389000000     0.104000000    -7.144000000
C    -1.743000000    -0.048000000    -6.841000000
C    -2.622000000    -0.828000000    -7.699000000
H    -2.261000000    -1.520000000    -8.456000000
C    -4.017000000    -0.722000000    -7.466000000
H    -4.745000000    -1.260000000    -8.067000000
C    -4.543000000     0.085000000    -6.463000000
H    -5.601000000     0.168000000    -6.227000000
C    -3.677000000     0.769000000    -5.593000000
C    -2.288000000     0.598000000    -5.708000000
H    -1.681000000     1.183000000    -5.021000000
C     1.448000000     1.613000000    -1.459000000
H     2.162000000     2.031000000    -2.165000000
C     1.782000000     0.357000000    -0.959000000
H     2.747000000    -0.078000000    -1.207000000
C     0.900000000    -0.405000000    -0.154000000
H     1.276000000    -1.408000000     0.185000000
C    -0.403000000     0.092000000     0.082000000
H    -1.128000000    -0.369000000     0.748000000
C    -0.688000000     1.375000000    -0.386000000
H    -1.679000000     1.727000000    -0.110000000
C     0.193000000     2.141000000    -1.111000000
C    -0.318000000     3.531000000    -1.595000000
O    -1.337000000     4.046000000    -1.212000000
O     0.268000000     4.184000000    -2.492000000
O    -3.418000000     7.403000000     0.766000000
H    -3.914000000     8.032000000     1.290000000
H    -3.510000000     7.715000000    -0.134000000
O     0.613000000     8.317000000    -4.750000000
H     0.132000000     7.618000000    -4.306000000
H     0.761000000     8.975000000    -4.071000000
O    -3.060000000     8.895000000    -1.509000000
H    -2.699000000     9.781000000    -1.509000000
H    -3.319000000     8.742000000    -2.418000000
O    -3.304000000     5.481000000    -2.412000000
H    -2.727000000     4.865000000    -1.960000000
H    -2.715000000     6.148000000    -2.764000000
O    -2.877000000     3.508000000    -7.498000000
H    -3.072000000     4.350000000    -7.910000000
H    -3.250000000     3.578000000    -6.620000000
O     3.355000000     8.564000000     1.447000000
H     4.114000000     8.246000000     1.935000000
H     2.889000000     7.770000000     1.185000000
O    -0.260000000     3.326000000    -6.786000000
H    -0.397000000     3.512000000    -5.857000000
H    -1.142000000     3.285000000    -7.155000000
O     0.868000000     8.988000000    -1.934000000
H     1.608000000     8.527000000    -2.330000000
H     0.355000000     8.300000000    -1.512000000
O    -1.789000000     4.098000000    -4.572000000
H    -1.251000000     4.144000000    -3.782000000
H    -2.584000000     4.584000000    -4.349000000
O     1.990000000     6.449000000     0.474000000
H     2.254000000     6.106000000    -0.380000000
H     1.035000000     6.388000000     0.472000000
O    -3.585000000     6.834000000    -6.023000000
H    -2.694000000     6.984000000    -6.339000000
H    -3.960000000     6.214000000    -6.649000000
O     4.430000000     5.039000000    -5.972000000
H     4.973000000     5.553000000    -5.374000000
H     3.564000000     5.033000000    -5.564000000
O     2.564000000     5.334000000    -1.923000000
H     1.694000000     5.109000000    -2.254000000
H     3.098000000     4.562000000    -2.107000000
O    -5.689000000     6.080000000    -0.593000000
H    -4.735000000     6.080000000    -0.668000000
H    -5.896000000     5.244000000    -0.175000000
O    -0.780000000     6.438000000    -2.713000000
H    -1.174000000     6.383000000    -1.842000000
H    -0.229000000     5.658000000    -2.775000000
O     1.876000000     4.347000000    -4.977000000
H     1.519000000     3.842000000    -5.707000000
H     1.199000000     4.304000000    -4.302000000
O    -0.846000000     6.374000000     0.444000000
H    -0.970000000     5.426000000     0.393000000
H    -1.714000000     6.718000000     0.653000000
O     2.982000000     7.768000000    -2.820000000
H     3.103000000     6.823000000    -2.726000000
H     3.791000000     8.148000000    -2.477000000
O     0.897000000     6.763000000    -6.740000000
H     0.703000000     7.399000000    -6.051000000
H     1.557000000     6.186000000    -6.355000000
