215
-1479.10764
C    -0.981000000     2.477000000     4.810000000
H     0.031000000     2.207000000     5.099000000
C    -1.839000000     1.473000000     4.357000000
C    -3.158000000     1.804000000     4.018000000
H    -3.880000000     1.028000000     3.775000000
C    -1.379000000     0.014000000     4.131000000
O    -0.396000000    -0.335000000     5.046000000
H    -0.985000000     0.021000000     3.104000000
O    -2.424000000    -1.013000000     4.231000000
C    -2.513000000    -2.081000000     3.399000000
C    -3.487000000    -2.045000000     2.399000000
H    -4.126000000    -1.177000000     2.260000000
C    -3.421000000    -2.948000000     1.296000000
O    -4.225000000    -2.704000000     0.218000000
C    -2.512000000    -3.992000000     1.298000000
C    -2.377000000    -5.009000000     0.162000000
H    -2.035000000    -5.960000000     0.576000000
C    -1.421000000    -4.434000000    -0.923000000
C    -0.078000000    -4.766000000    -0.921000000
H     0.293000000    -5.464000000    -0.175000000
H    -3.365000000    -5.258000000    -0.231000000
C    -1.678000000    -4.060000000     2.399000000
H    -0.902000000    -4.817000000     2.329000000
C    -1.622000000    -3.118000000     3.402000000
C    -0.519000000    -3.251000000     4.464000000
H    -0.172000000    -4.282000000     4.562000000
H    -0.851000000    -3.030000000     5.481000000
C     0.714000000    -2.331000000     4.199000000
C     1.822000000    -2.895000000     3.555000000
H     1.869000000    -3.966000000     3.377000000
C     0.698000000    -1.017000000     4.554000000
C     1.808000000    -0.208000000     4.168000000
H     1.740000000     0.876000000     4.131000000
C     2.927000000    -0.770000000     3.545000000
O     3.983000000     0.069000000     3.108000000
C     3.813000000     0.362000000     1.680000000
C     3.934000000     1.836000000     1.358000000
C     4.493000000     2.271000000     0.149000000
H     4.652000000     1.547000000    -0.646000000
C     3.711000000     2.798000000     2.317000000
H     3.180000000     2.525000000     3.226000000
O     4.747000000    -0.392000000     0.867000000
H     2.770000000     0.140000000     1.410000000
C     2.943000000    -2.147000000     3.249000000
C     4.131000000    -2.763000000     2.474000000
H     4.441000000    -3.745000000     2.836000000
H     5.022000000    -2.231000000     2.813000000
C     3.926000000    -2.646000000     0.972000000
C     3.296000000    -3.671000000     0.259000000
H     3.052000000    -4.582000000     0.799000000
C     4.266000000    -1.543000000     0.224000000
C     4.070000000    -1.428000000    -1.193000000
H     4.273000000    -0.513000000    -1.745000000
C     3.394000000    -2.449000000    -1.846000000
O     3.031000000    -2.214000000    -3.153000000
C     1.727000000    -1.838000000    -3.481000000
C     1.604000000    -0.654000000    -4.510000000
C     2.715000000     0.153000000    -4.724000000
H     3.604000000     0.006000000    -4.116000000
C     0.402000000    -0.375000000    -5.190000000
H    -0.438000000    -1.046000000    -5.030000000
O     1.020000000    -3.049000000    -3.958000000
H     1.129000000    -1.446000000    -2.644000000
C     3.080000000    -3.629000000    -1.138000000
C     2.256000000    -4.729000000    -1.833000000
H     2.423000000    -5.672000000    -1.308000000
H     2.654000000    -4.932000000    -2.830000000
C     0.780000000    -4.333000000    -1.937000000
C     0.170000000    -3.623000000    -3.046000000
C    -1.176000000    -3.323000000    -2.988000000
H    -1.681000000    -2.716000000    -3.735000000
C    -1.944000000    -3.660000000    -1.952000000
O    -3.254000000    -3.208000000    -1.905000000
C    -3.515000000    -2.176000000    -0.962000000
H    -2.548000000    -1.788000000    -0.610000000
C    -4.331000000    -1.078000000    -1.596000000
C    -4.831000000    -0.100000000    -0.722000000
H    -4.549000000     0.034000000     0.319000000
C    -4.391000000    -0.968000000    -2.983000000
H    -3.945000000    -1.734000000    -3.614000000
C    -4.944000000     0.148000000    -3.554000000
O    -5.004000000     0.317000000    -4.953000000
C    -5.428000000     1.138000000    -2.738000000
H    -5.798000000     2.098000000    -3.090000000
C    -5.415000000     0.973000000    -1.347000000
O    -5.862000000     2.045000000    -0.594000000
C    -6.222000000     1.936000000     0.750000000
C    -5.478000000     2.741000000     1.611000000
H    -4.793000000     3.435000000     1.130000000
C    -7.188000000     1.041000000     1.210000000
H    -7.747000000     0.386000000     0.546000000
C    -7.468000000     1.082000000     2.593000000
H    -8.286000000     0.424000000     2.876000000
C    -6.773000000     1.832000000     3.472000000
H    -6.903000000     1.826000000     4.551000000
C    -5.799000000     2.743000000     2.989000000
O    -4.932000000     3.487000000     3.832000000
C    -3.590000000     3.148000000     4.147000000
C    -2.707000000     4.106000000     4.635000000
H    -3.140000000     5.091000000     4.788000000
C    -1.413000000     3.760000000     4.899000000
O    -0.609000000     4.818000000     5.269000000
C     0.774000000     4.763000000     5.249000000
C     1.472000000     4.853000000     4.039000000
H     0.904000000     4.973000000     3.120000000
C     1.443000000     4.551000000     6.392000000
H     0.796000000     4.458000000     7.261000000
C     2.859000000     4.299000000     6.442000000
H     3.309000000     3.981000000     7.378000000
C     3.516000000     4.424000000     5.194000000
H     4.553000000     4.125000000     5.062000000
C     2.839000000     4.841000000     4.036000000
O     3.397000000     5.151000000     2.892000000
C     3.892000000     4.167000000     2.019000000
C     4.438000000     4.603000000     0.808000000
H     4.705000000     5.628000000     0.565000000
C     4.789000000     3.635000000    -0.130000000
O     5.219000000     4.056000000    -1.403000000
C     5.354000000     3.257000000    -2.571000000
C     4.363000000     3.108000000    -3.531000000
H     3.428000000     3.656000000    -3.449000000
C     6.664000000     2.868000000    -2.855000000
H     7.472000000     3.075000000    -2.158000000
C     6.922000000     1.970000000    -3.930000000
H     7.915000000     1.550000000    -4.071000000
C     5.853000000     1.760000000    -4.853000000
H     6.022000000     1.080000000    -5.684000000
C     4.615000000     2.380000000    -4.658000000
O     3.633000000     2.169000000    -5.580000000
C     2.565000000     1.276000000    -5.577000000
C     1.416000000     1.510000000    -6.343000000
H     1.375000000     2.344000000    -7.039000000
C     0.364000000     0.632000000    -6.210000000
O    -0.663000000     0.830000000    -7.104000000
C    -1.868000000     0.119000000    -6.896000000
C    -2.033000000    -1.114000000    -7.452000000
H    -1.185000000    -1.509000000    -8.005000000
C    -3.189000000    -1.914000000    -7.155000000
H    -3.210000000    -2.961000000    -7.446000000
C    -4.141000000    -1.470000000    -6.277000000
H    -4.998000000    -2.089000000    -6.025000000
C    -4.009000000    -0.162000000    -5.821000000
C    -2.966000000     0.618000000    -6.194000000
H    -2.804000000     1.641000000    -5.864000000
C     0.857000000     0.867000000    -1.326000000
H     1.668000000     1.033000000    -2.030000000
C     0.815000000    -0.180000000    -0.389000000
H     1.573000000    -0.956000000    -0.449000000
C    -0.202000000    -0.267000000     0.561000000
H    -0.168000000    -1.118000000     1.260000000
C    -1.323000000     0.545000000     0.533000000
H    -2.130000000     0.269000000     1.208000000
C    -1.340000000     1.581000000    -0.412000000
H    -2.199000000     2.214000000    -0.620000000
C    -0.288000000     1.789000000    -1.350000000
C    -0.332000000     2.935000000    -2.299000000
O    -1.283000000     3.691000000    -2.166000000
O     0.629000000     3.241000000    -3.040000000
O     1.468000000     9.051000000    -1.323000000
H     1.828000000     8.386000000    -0.737000000
H     2.015000000     9.823000000    -1.173000000
O     2.106000000     7.442000000     0.690000000
H     1.566000000     6.653000000     0.673000000
H     2.090000000     7.724000000     1.605000000
O     3.096000000     6.893000000    -3.428000000
H     2.779000000     6.241000000    -2.803000000
H     2.369000000     7.510000000    -3.521000000
O    -3.126000000     7.143000000    -5.064000000
H    -2.970000000     8.086000000    -5.009000000
H    -2.328000000     6.748000000    -4.712000000
O     0.355000000     7.933000000    -5.205000000
H    -0.111000000     7.659000000    -5.995000000
H     0.081000000     7.306000000    -4.536000000
O     3.783000000     5.683000000    -6.364000000
H     3.146000000     5.363000000    -5.726000000
H     4.170000000     4.890000000    -6.734000000
O    -0.479000000     6.131000000    -3.291000000
H    -0.893000000     5.317000000    -3.004000000
H    -0.087000000     6.492000000    -2.496000000
O    -1.721000000     3.489000000    -4.774000000
H    -0.901000000     3.002000000    -4.694000000
H    -1.959000000     3.708000000    -3.873000000
O    -0.483000000     5.131000000     0.853000000
H    -0.721000000     5.463000000     1.719000000
H    -1.304000000     5.140000000     0.360000000
O     5.546000000     6.344000000    -4.323000000
H     5.081000000     6.553000000    -5.134000000
H     4.913000000     6.530000000    -3.629000000
O    -1.900000000     7.859000000     0.092000000
H    -2.112000000     6.947000000    -0.106000000
H    -1.424000000     7.819000000     0.922000000
O    -5.412000000     4.774000000    -0.912000000
H    -5.971000000     4.031000000    -1.140000000
H    -5.397000000     5.314000000    -1.702000000
O    -2.701000000     5.321000000    -0.673000000
H    -3.607000000     5.082000000    -0.478000000
H    -2.396000000     4.639000000    -1.271000000
O     1.213000000     4.723000000    -8.095000000
H     1.631000000     5.075000000    -7.310000000
H     0.456000000     4.238000000    -7.766000000
O     1.944000000     5.303000000    -1.825000000
H     1.641000000     5.162000000    -0.929000000
H     1.599000000     4.556000000    -2.315000000
O     1.486000000     4.784000000    -5.093000000
H     0.896000000     5.387000000    -4.641000000
H     1.331000000     3.938000000    -4.673000000
O     0.886000000     2.938000000     1.549000000
H     0.409000000     2.314000000     1.002000000
H     0.495000000     3.787000000     1.340000000
O    -5.440000000     6.588000000    -3.341000000
H    -5.974000000     7.350000000    -3.567000000
H    -4.718000000     6.607000000    -3.969000000
O    -1.336000000     3.850000000    -7.571000000
H    -1.991000000     3.575000000    -8.213000000
H    -1.813000000     3.886000000    -6.742000000
