215
-1451.92477
C    -0.255000000     2.862000000     4.192000000
H     0.686000000     2.459000000     4.558000000
C    -1.315000000     1.920000000     4.033000000
C    -2.585000000     2.421000000     3.779000000
H    -3.423000000     1.734000000     3.696000000
C    -1.035000000     0.415000000     4.069000000
O    -0.046000000     0.006000000     5.006000000
H    -0.625000000     0.297000000     3.055000000
O    -2.229000000    -0.360000000     4.282000000
C    -2.473000000    -1.428000000     3.498000000
C    -3.523000000    -1.262000000     2.606000000
H    -4.032000000    -0.308000000     2.490000000
C    -3.835000000    -2.257000000     1.689000000
O    -4.647000000    -1.951000000     0.623000000
C    -3.139000000    -3.482000000     1.752000000
C    -3.199000000    -4.507000000     0.621000000
H    -2.951000000    -5.455000000     1.102000000
C    -2.320000000    -4.231000000    -0.553000000
C    -1.083000000    -4.766000000    -0.662000000
H    -0.711000000    -5.542000000     0.002000000
H    -4.249000000    -4.561000000     0.325000000
C    -2.155000000    -3.687000000     2.705000000
H    -1.620000000    -4.630000000     2.778000000
C    -1.886000000    -2.652000000     3.653000000
C    -0.803000000    -2.904000000     4.773000000
H    -0.689000000    -3.986000000     4.876000000
H    -1.172000000    -2.686000000     5.778000000
C     0.559000000    -2.324000000     4.335000000
C     1.429000000    -3.223000000     3.726000000
H     0.994000000    -4.197000000     3.515000000
C     0.816000000    -0.900000000     4.443000000
C     2.063000000    -0.435000000     3.963000000
H     2.241000000     0.637000000     3.952000000
C     3.003000000    -1.349000000     3.408000000
O     4.122000000    -0.733000000     2.811000000
C     4.040000000    -0.458000000     1.393000000
C     4.476000000     0.987000000     1.028000000
C     4.629000000     1.318000000    -0.342000000
H     4.456000000     0.527000000    -1.067000000
C     4.508000000     1.974000000     2.012000000
H     4.365000000     1.794000000     3.074000000
O     4.729000000    -1.467000000     0.619000000
H     2.972000000    -0.505000000     1.135000000
C     2.691000000    -2.723000000     3.258000000
C     3.572000000    -3.580000000     2.413000000
H     3.359000000    -4.602000000     2.733000000
H     4.626000000    -3.532000000     2.694000000
C     3.305000000    -3.427000000     0.862000000
C     2.338000000    -4.325000000     0.323000000
H     1.827000000    -5.027000000     0.977000000
C     3.956000000    -2.427000000     0.025000000
C     3.607000000    -2.333000000    -1.312000000
H     4.154000000    -1.579000000    -1.872000000
C     2.690000000    -3.285000000    -1.815000000
O     2.477000000    -3.160000000    -3.175000000
C     1.206000000    -2.464000000    -3.486000000
C     1.384000000    -1.521000000    -4.631000000
C     2.754000000    -1.105000000    -4.881000000
H     3.587000000    -1.604000000    -4.393000000
C     0.339000000    -0.849000000    -5.290000000
H    -0.643000000    -1.189000000    -4.970000000
O     0.108000000    -3.406000000    -3.769000000
H     1.005000000    -1.752000000    -2.671000000
C     2.118000000    -4.255000000    -1.059000000
C     1.145000000    -5.156000000    -1.783000000
H     1.015000000    -6.082000000    -1.218000000
H     1.437000000    -5.350000000    -2.817000000
C    -0.250000000    -4.519000000    -1.743000000
C    -0.686000000    -3.652000000    -2.706000000
C    -1.888000000    -3.051000000    -2.663000000
H    -2.069000000    -2.274000000    -3.401000000
C    -2.703000000    -3.327000000    -1.606000000
O    -3.887000000    -2.597000000    -1.533000000
C    -3.925000000    -1.595000000    -0.535000000
H    -2.872000000    -1.403000000    -0.281000000
C    -4.618000000    -0.310000000    -1.105000000
C    -5.460000000     0.560000000    -0.426000000
H    -5.606000000     0.429000000     0.643000000
C    -4.343000000    -0.006000000    -2.471000000
H    -3.667000000    -0.631000000    -3.050000000
C    -4.826000000     1.188000000    -3.044000000
O    -4.406000000     1.643000000    -4.356000000
C    -5.697000000     2.022000000    -2.345000000
H    -6.159000000     2.848000000    -2.879000000
C    -6.033000000     1.693000000    -1.025000000
O    -6.637000000     2.721000000    -0.313000000
C    -6.407000000     2.904000000     1.001000000
C    -5.249000000     3.581000000     1.492000000
H    -4.522000000     3.864000000     0.735000000
C    -7.398000000     2.516000000     1.866000000
H    -8.312000000     2.004000000     1.576000000
C    -7.299000000     2.822000000     3.187000000
H    -8.172000000     2.692000000     3.822000000
C    -6.095000000     3.344000000     3.738000000
H    -6.078000000     3.575000000     4.800000000
C    -5.090000000     3.707000000     2.846000000
O    -4.008000000     4.344000000     3.440000000
C    -2.786000000     3.780000000     3.675000000
C    -1.711000000     4.647000000     3.660000000
H    -1.855000000     5.694000000     3.406000000
C    -0.511000000     4.226000000     4.084000000
O     0.475000000     5.154000000     4.264000000
C     1.779000000     4.803000000     4.578000000
C     2.696000000     4.752000000     3.531000000
H     2.297000000     5.062000000     2.568000000
C     2.274000000     4.573000000     5.874000000
H     1.683000000     4.598000000     6.786000000
C     3.576000000     4.163000000     6.096000000
H     3.959000000     3.984000000     7.097000000
C     4.469000000     4.046000000     5.014000000
H     5.411000000     3.531000000     5.183000000
C     4.023000000     4.361000000     3.710000000
O     4.857000000     4.256000000     2.651000000
C     4.727000000     3.287000000     1.665000000
C     4.938000000     3.656000000     0.334000000
H     5.150000000     4.681000000     0.040000000
C     4.842000000     2.661000000    -0.661000000
O     4.934000000     3.006000000    -1.976000000
C     5.419000000     2.150000000    -2.939000000
C     4.545000000     1.640000000    -3.880000000
H     3.476000000     1.745000000    -3.715000000
C     6.793000000     1.916000000    -2.981000000
H     7.549000000     2.315000000    -2.310000000
C     7.307000000     1.193000000    -4.107000000
H     8.321000000     0.804000000    -4.148000000
C     6.453000000     0.643000000    -5.044000000
H     6.829000000     0.024000000    -5.854000000
C     5.066000000     0.896000000    -4.981000000
O     4.292000000     0.361000000    -5.965000000
C     2.968000000    -0.056000000    -5.764000000
C     1.913000000     0.549000000    -6.445000000
H     2.171000000     1.361000000    -7.120000000
C     0.598000000     0.160000000    -6.255000000
O    -0.449000000     0.900000000    -6.766000000
C    -1.761000000     0.555000000    -6.504000000
C    -2.439000000    -0.453000000    -7.236000000
H    -1.903000000    -0.952000000    -8.039000000
C    -3.797000000    -0.735000000    -7.006000000
H    -4.398000000    -1.443000000    -7.571000000
C    -4.386000000    -0.061000000    -5.956000000
H    -5.426000000    -0.264000000    -5.715000000
C    -3.720000000     0.924000000    -5.257000000
C    -2.437000000     1.296000000    -5.550000000
H    -1.967000000     2.088000000    -4.972000000
C     1.240000000     1.271000000    -1.156000000
H     2.185000000     1.460000000    -1.660000000
C     1.004000000     0.156000000    -0.347000000
H     1.710000000    -0.643000000    -0.135000000
C    -0.251000000    -0.060000000     0.205000000
H    -0.445000000    -0.861000000     0.934000000
C    -1.270000000     0.824000000    -0.109000000
H    -2.278000000     0.677000000     0.270000000
C    -1.073000000     1.946000000    -0.928000000
H    -1.932000000     2.516000000    -1.273000000
C     0.201000000     2.063000000    -1.514000000
C     0.342000000     3.104000000    -2.517000000
O    -0.556000000     3.754000000    -3.035000000
O     1.470000000     3.449000000    -2.764000000
O     3.980000000     6.861000000     0.851000000
H     4.426000000     6.253000000     1.441000000
H     3.433000000     6.302000000     0.301000000
O     3.942000000     5.979000000    -3.443000000
H     3.440000000     5.453000000    -4.066000000
H     4.208000000     6.751000000    -3.941000000
O     7.064000000     4.992000000    -1.864000000
H     7.911000000     4.834000000    -1.447000000
H     6.662000000     4.126000000    -1.926000000
O    -4.359000000     6.795000000     0.505000000
H    -3.569000000     6.264000000     0.611000000
H    -4.637000000     6.633000000    -0.396000000
O     1.053000000     7.251000000     0.389000000
H     0.599000000     6.414000000     0.493000000
H     1.586000000     7.138000000    -0.398000000
O     4.581000000     4.004000000    -6.246000000
H     3.664000000     4.006000000    -5.973000000
H     4.620000000     3.355000000    -6.949000000
O    -1.433000000     8.224000000    -2.557000000
H    -1.360000000     9.066000000    -2.107000000
H    -0.997000000     8.364000000    -3.398000000
O    -0.761000000     4.783000000    -5.680000000
H    -0.521000000     4.435000000    -4.821000000
H    -1.636000000     5.150000000    -5.554000000
O     1.101000000     7.449000000    -5.593000000
H     0.284000000     7.922000000    -5.436000000
H     0.873000000     6.528000000    -5.468000000
O    -2.085000000     5.372000000     0.587000000
H    -2.008000000     5.398000000    -0.366000000
H    -1.259000000     4.988000000     0.883000000
O    -5.461000000     5.950000000    -2.216000000
H    -6.093000000     5.351000000    -2.612000000
H    -4.740000000     5.987000000    -2.844000000
O    -2.512000000     5.452000000    -2.336000000
H    -2.253000000     6.367000000    -2.448000000
H    -1.708000000     4.956000000    -2.492000000
O     1.896000000     9.735000000    -3.479000000
H     2.055000000     8.935000000    -3.980000000
H     2.660000000    10.284000000    -3.655000000
O     2.644000000     5.278000000    -1.132000000
H     3.303000000     5.599000000    -1.748000000
H     2.204000000     4.569000000    -1.600000000
O     1.934000000     4.629000000    -5.043000000
H     1.073000000     4.534000000    -5.449000000
H     1.815000000     4.307000000    -4.149000000
O    -3.345000000     5.265000000    -5.077000000
H    -3.036000000     5.234000000    -4.172000000
H    -3.798000000     6.105000000    -5.147000000
O    -1.259000000     8.480000000    -5.143000000
H    -2.092000000     8.038000000    -5.309000000
H    -1.452000000     9.409000000    -5.272000000
O     0.471000000     4.194000000     0.765000000
H     0.299000000     3.435000000     1.323000000
H     0.779000000     3.819000000    -0.060000000
O    -0.338000000     4.758000000    -8.375000000
H     0.578000000     4.729000000    -8.651000000
H    -0.301000000     4.753000000    -7.418000000
