215
-1457.57830
C    -0.570000000     2.676000000     4.124000000
H     0.478000000     2.437000000     4.281000000
C    -1.550000000     1.744000000     4.030000000
C    -2.851000000     2.130000000     3.748000000
H    -3.657000000     1.402000000     3.693000000
C    -1.185000000     0.285000000     4.045000000
O    -0.200000000     0.004000000     5.059000000
H    -0.744000000     0.053000000     3.064000000
O    -2.427000000    -0.521000000     4.313000000
C    -2.629000000    -1.662000000     3.521000000
C    -3.592000000    -1.601000000     2.533000000
H    -4.223000000    -0.718000000     2.466000000
C    -3.689000000    -2.593000000     1.554000000
O    -4.579000000    -2.352000000     0.453000000
C    -2.794000000    -3.669000000     1.628000000
C    -2.766000000    -4.785000000     0.524000000
H    -2.545000000    -5.766000000     0.949000000
C    -1.794000000    -4.415000000    -0.657000000
C    -0.465000000    -4.911000000    -0.704000000
H    -0.049000000    -5.425000000     0.159000000
H    -3.736000000    -4.873000000     0.029000000
C    -1.879000000    -3.769000000     2.710000000
H    -1.161000000    -4.584000000     2.704000000
C    -1.740000000    -2.740000000     3.605000000
C    -0.644000000    -2.860000000     4.717000000
H    -0.414000000    -3.921000000     4.841000000
H    -0.794000000    -2.527000000     5.746000000
C     0.631000000    -2.147000000     4.305000000
C     1.620000000    -2.946000000     3.707000000
H     1.503000000    -4.026000000     3.684000000
C     0.865000000    -0.773000000     4.605000000
C     2.052000000    -0.220000000     4.177000000
H     2.237000000     0.833000000     4.378000000
C     2.945000000    -0.971000000     3.450000000
O     3.953000000    -0.266000000     2.888000000
C     3.884000000     0.086000000     1.500000000
C     4.318000000     1.570000000     1.410000000
C     4.755000000     1.974000000     0.118000000
H     4.770000000     1.243000000    -0.686000000
C     4.391000000     2.536000000     2.436000000
H     3.973000000     2.246000000     3.397000000
O     4.828000000    -0.815000000     0.800000000
H     2.861000000    -0.035000000     1.114000000
C     2.805000000    -2.354000000     3.278000000
C     3.863000000    -3.124000000     2.524000000
H     3.805000000    -4.164000000     2.852000000
H     4.848000000    -2.748000000     2.809000000
C     3.785000000    -3.002000000     0.955000000
C     2.936000000    -3.940000000     0.322000000
H     2.554000000    -4.763000000     0.921000000
C     4.370000000    -1.939000000     0.163000000
C     4.209000000    -1.923000000    -1.242000000
H     4.653000000    -1.097000000    -1.791000000
C     3.336000000    -2.859000000    -1.818000000
O     2.926000000    -2.655000000    -3.055000000
C     1.564000000    -2.239000000    -3.215000000
C     1.461000000    -1.093000000    -4.192000000
C     2.461000000    -0.109000000    -4.279000000
H     3.353000000    -0.107000000    -3.658000000
C     0.361000000    -0.893000000    -5.038000000
H    -0.479000000    -1.581000000    -5.082000000
O     0.734000000    -3.314000000    -3.690000000
H     1.056000000    -1.895000000    -2.302000000
C     2.707000000    -3.883000000    -1.020000000
C     1.830000000    -4.915000000    -1.757000000
H     1.951000000    -5.898000000    -1.297000000
H     2.334000000    -4.962000000    -2.725000000
C     0.373000000    -4.497000000    -1.741000000
C    -0.160000000    -3.738000000    -2.783000000
C    -1.501000000    -3.398000000    -2.805000000
H    -1.903000000    -2.923000000    -3.696000000
C    -2.339000000    -3.654000000    -1.729000000
O    -3.618000000    -3.174000000    -1.669000000
C    -3.825000000    -2.036000000    -0.802000000
H    -2.819000000    -1.608000000    -0.679000000
C    -4.489000000    -0.929000000    -1.558000000
C    -4.906000000     0.175000000    -0.892000000
H    -4.822000000     0.254000000     0.189000000
C    -4.646000000    -0.912000000    -2.953000000
H    -4.309000000    -1.706000000    -3.614000000
C    -5.094000000     0.194000000    -3.623000000
O    -5.245000000     0.298000000    -5.006000000
C    -5.624000000     1.260000000    -2.916000000
H    -5.981000000     2.128000000    -3.465000000
C    -5.463000000     1.250000000    -1.550000000
O    -5.916000000     2.317000000    -0.875000000
C    -6.045000000     2.299000000     0.528000000
C    -5.170000000     3.082000000     1.219000000
H    -4.397000000     3.670000000     0.732000000
C    -7.064000000     1.600000000     1.191000000
H    -7.685000000     0.936000000     0.596000000
C    -7.171000000     1.523000000     2.529000000
H    -7.930000000     0.942000000     3.045000000
C    -6.275000000     2.329000000     3.245000000
H    -6.462000000     2.460000000     4.308000000
C    -5.327000000     3.097000000     2.606000000
O    -4.455000000     3.852000000     3.417000000
C    -3.237000000     3.438000000     3.760000000
C    -2.255000000     4.430000000     3.881000000
H    -2.523000000     5.482000000     3.837000000
C    -0.922000000     4.041000000     4.085000000
O     0.051000000     5.001000000     3.876000000
C     1.315000000     5.045000000     4.353000000
C     2.388000000     4.806000000     3.535000000
H     2.247000000     4.635000000     2.471000000
C     1.540000000     5.189000000     5.751000000
H     0.702000000     5.322000000     6.430000000
C     2.823000000     5.074000000     6.278000000
H     3.071000000     5.127000000     7.335000000
C     3.899000000     5.107000000     5.417000000
H     4.909000000     5.232000000     5.799000000
C     3.693000000     4.894000000     3.999000000
O     4.788000000     4.714000000     3.222000000
C     4.830000000     3.851000000     2.184000000
C     5.315000000     4.193000000     0.934000000
H     5.672000000     5.197000000     0.718000000
C     5.202000000     3.285000000    -0.069000000
O     5.536000000     3.759000000    -1.343000000
C     5.435000000     2.901000000    -2.423000000
C     4.341000000     2.875000000    -3.238000000
H     3.497000000     3.470000000    -2.900000000
C     6.641000000     2.150000000    -2.648000000
H     7.505000000     2.258000000    -1.998000000
C     6.604000000     1.281000000    -3.747000000
H     7.531000000     0.835000000    -4.098000000
C     5.520000000     1.322000000    -4.645000000
H     5.581000000     0.823000000    -5.609000000
C     4.347000000     2.068000000    -4.375000000
O     3.235000000     2.046000000    -5.173000000
C     2.245000000     1.040000000    -5.042000000
C     1.137000000     1.158000000    -5.844000000
H     1.086000000     2.029000000    -6.492000000
C     0.168000000     0.196000000    -5.881000000
O    -0.784000000     0.309000000    -6.892000000
C    -2.029000000    -0.198000000    -6.776000000
C    -2.326000000    -1.277000000    -7.660000000
H    -1.574000000    -1.681000000    -8.335000000
C    -3.656000000    -1.787000000    -7.647000000
H    -3.832000000    -2.624000000    -8.317000000
C    -4.550000000    -1.321000000    -6.700000000
H    -5.539000000    -1.766000000    -6.622000000
C    -4.264000000    -0.300000000    -5.801000000
C    -3.003000000     0.259000000    -5.806000000
H    -2.842000000     1.114000000    -5.155000000
C     0.396000000     0.907000000    -1.584000000
H     1.265000000     1.130000000    -2.198000000
C     0.518000000     0.081000000    -0.538000000
H     1.462000000    -0.456000000    -0.522000000
C    -0.487000000    -0.156000000     0.394000000
H    -0.363000000    -0.884000000     1.186000000
C    -1.750000000     0.423000000     0.126000000
H    -2.611000000     0.211000000     0.754000000
C    -1.899000000     1.306000000    -0.913000000
H    -2.837000000     1.834000000    -1.059000000
C    -0.829000000     1.600000000    -1.767000000
C    -1.006000000     2.689000000    -2.796000000
O    -2.118000000     3.058000000    -3.134000000
O    -0.020000000     3.249000000    -3.214000000
O     0.331000000     7.695000000    -0.935000000
H     0.141000000     6.786000000    -1.168000000
H     0.831000000     7.633000000    -0.121000000
O     3.498000000     6.642000000    -2.637000000
H     2.872000000     5.951000000    -2.423000000
H     2.974000000     7.443000000    -2.653000000
O    -3.969000000     7.311000000     0.640000000
H    -3.185000000     6.763000000     0.655000000
H    -4.622000000     6.809000000     1.127000000
O    -2.066000000     8.193000000    -4.341000000
H    -2.387000000     7.882000000    -5.188000000
H    -1.999000000     7.402000000    -3.806000000
O     2.766000000     6.074000000    -6.586000000
H     2.017000000     5.851000000    -6.034000000
H     3.004000000     5.250000000    -7.011000000
O    -1.182000000     5.856000000    -3.254000000
H    -0.263000000     5.990000000    -3.026000000
H    -1.203000000     4.992000000    -3.666000000
O    -4.230000000     3.738000000    -4.895000000
H    -3.442000000     3.483000000    -4.416000000
H    -4.487000000     4.574000000    -4.507000000
O    -1.856000000     5.480000000     0.418000000
H    -2.281000000     5.060000000    -0.330000000
H    -1.303000000     4.796000000     0.796000000
O    -5.919000000     5.309000000    -1.206000000
H    -6.061000000     4.375000000    -1.356000000
H    -4.990000000     5.444000000    -1.393000000
O    -1.004000000     7.389000000     1.970000000
H    -1.271000000     7.272000000     1.059000000
H    -1.222000000     6.558000000     2.393000000
O    -3.379000000     4.843000000    -1.711000000
H    -2.934000000     5.539000000    -2.195000000
H    -3.163000000     4.043000000    -2.190000000
O    -5.967000000     2.523000000    -6.421000000
H    -5.945000000     1.650000000    -6.029000000
H    -5.355000000     3.037000000    -5.895000000
O    -1.399000000     7.043000000    -7.062000000
H    -1.554000000     6.100000000    -7.112000000
H    -2.274000000     7.431000000    -7.075000000
O     0.402000000     4.720000000    -9.160000000
H    -0.063000000     4.137000000    -8.561000000
H     0.727000000     4.144000000    -9.852000000
O     0.998000000     4.963000000    -1.410000000
H     1.026000000     4.536000000    -0.555000000
H     0.767000000     4.263000000    -2.021000000
O     0.473000000     4.368000000    -5.418000000
H    -0.225000000     4.009000000    -5.966000000
H     0.432000000     3.855000000    -4.611000000
O    -4.473000000     6.378000000    -3.935000000
H    -5.423000000     6.327000000    -4.042000000
H    -4.345000000     7.029000000    -3.246000000
O    -0.568000000     3.358000000     1.129000000
H    -0.736000000     3.157000000     2.050000000
H    -0.639000000     2.514000000     0.683000000
O    -1.932000000     4.309000000    -7.007000000
H    -2.000000000     3.739000000    -7.773000000
H    -2.619000000     3.999000000    -6.416000000
