215
-1471.91096
C    -0.486000000     2.961000000     4.335000000
H     0.555000000     2.689000000     4.492000000
C    -1.431000000     2.009000000     4.090000000
C    -2.765000000     2.398000000     3.892000000
H    -3.567000000     1.668000000     3.808000000
C    -1.061000000     0.517000000     4.084000000
O    -0.057000000     0.154000000     5.036000000
H    -0.722000000     0.090000000     3.129000000
O    -2.209000000    -0.273000000     4.338000000
C    -2.472000000    -1.385000000     3.453000000
C    -3.448000000    -1.232000000     2.547000000
H    -3.977000000    -0.284000000     2.485000000
C    -3.657000000    -2.211000000     1.578000000
O    -4.439000000    -1.899000000     0.497000000
C    -2.856000000    -3.378000000     1.630000000
C    -3.082000000    -4.465000000     0.646000000
H    -2.953000000    -5.410000000     1.178000000
C    -2.159000000    -4.312000000    -0.607000000
C    -0.874000000    -4.892000000    -0.699000000
H    -0.617000000    -5.530000000     0.142000000
H    -4.107000000    -4.364000000     0.283000000
C    -1.882000000    -3.533000000     2.601000000
H    -1.206000000    -4.383000000     2.637000000
C    -1.748000000    -2.554000000     3.579000000
C    -0.778000000    -2.747000000     4.751000000
H    -0.551000000    -3.803000000     4.913000000
H    -1.087000000    -2.292000000     5.694000000
C     0.531000000    -2.122000000     4.349000000
C     1.437000000    -2.951000000     3.687000000
H     1.273000000    -4.018000000     3.562000000
C     0.833000000    -0.805000000     4.647000000
C     2.056000000    -0.290000000     4.268000000
H     2.279000000     0.771000000     4.351000000
C     2.958000000    -1.113000000     3.556000000
O     3.960000000    -0.409000000     2.934000000
C     3.906000000    -0.262000000     1.454000000
C     4.474000000     1.108000000     1.011000000
C     5.251000000     1.223000000    -0.085000000
H     5.511000000     0.363000000    -0.697000000
C     4.170000000     2.272000000     1.779000000
H     3.535000000     2.225000000     2.660000000
O     4.614000000    -1.330000000     0.831000000
H     2.863000000    -0.353000000     1.119000000
C     2.605000000    -2.430000000     3.270000000
C     3.487000000    -3.403000000     2.415000000
H     3.210000000    -4.399000000     2.769000000
H     4.537000000    -3.281000000     2.691000000
C     3.209000000    -3.232000000     0.953000000
C     2.497000000    -4.208000000     0.244000000
H     2.083000000    -4.950000000     0.922000000
C     3.917000000    -2.332000000     0.204000000
C     3.790000000    -2.268000000    -1.185000000
H     4.350000000    -1.526000000    -1.747000000
C     3.024000000    -3.220000000    -1.814000000
O     2.659000000    -3.025000000    -3.112000000
C     1.422000000    -2.363000000    -3.340000000
C     1.524000000    -1.198000000    -4.300000000
C     2.710000000    -0.535000000    -4.477000000
H     3.588000000    -0.869000000    -3.931000000
C     0.328000000    -0.658000000    -4.832000000
H    -0.649000000    -1.011000000    -4.513000000
O     0.349000000    -3.276000000    -3.727000000
H     1.191000000    -1.990000000    -2.331000000
C     2.363000000    -4.204000000    -1.079000000
C     1.399000000    -5.180000000    -1.738000000
H     1.415000000    -6.072000000    -1.108000000
H     1.665000000    -5.505000000    -2.746000000
C    -0.020000000    -4.600000000    -1.745000000
C    -0.469000000    -3.660000000    -2.677000000
C    -1.687000000    -3.140000000    -2.655000000
H    -2.096000000    -2.529000000    -3.456000000
C    -2.544000000    -3.400000000    -1.585000000
O    -3.731000000    -2.680000000    -1.515000000
C    -3.831000000    -1.480000000    -0.700000000
H    -2.843000000    -1.109000000    -0.386000000
C    -4.608000000    -0.362000000    -1.353000000
C    -5.226000000     0.605000000    -0.553000000
H    -5.111000000     0.539000000     0.526000000
C    -4.679000000    -0.320000000    -2.739000000
H    -4.162000000    -1.110000000    -3.279000000
C    -5.272000000     0.838000000    -3.352000000
O    -5.335000000     0.907000000    -4.724000000
C    -5.973000000     1.755000000    -2.627000000
H    -6.441000000     2.612000000    -3.104000000
C    -5.884000000     1.653000000    -1.207000000
O    -6.409000000     2.749000000    -0.509000000
C    -6.373000000     2.873000000     0.832000000
C    -5.423000000     3.625000000     1.607000000
H    -4.559000000     4.106000000     1.156000000
C    -7.338000000     2.133000000     1.569000000
H    -7.946000000     1.380000000     1.074000000
C    -7.248000000     2.089000000     2.948000000
H    -7.820000000     1.330000000     3.474000000
C    -6.317000000     2.791000000     3.703000000
H    -6.501000000     2.767000000     4.774000000
C    -5.366000000     3.524000000     3.026000000
O    -4.388000000     4.205000000     3.812000000
C    -3.057000000     3.791000000     3.896000000
C    -2.057000000     4.724000000     4.091000000
H    -2.288000000     5.786000000     4.099000000
C    -0.746000000     4.275000000     4.297000000
O     0.182000000     5.282000000     4.493000000
C     1.594000000     5.020000000     4.388000000
C     2.278000000     5.115000000     3.174000000
H     1.681000000     5.339000000     2.293000000
C     2.259000000     4.556000000     5.529000000
H     1.763000000     4.561000000     6.496000000
C     3.640000000     4.239000000     5.506000000
H     4.163000000     3.973000000     6.422000000
C     4.340000000     4.381000000     4.304000000
H     5.374000000     4.122000000     4.092000000
C     3.639000000     4.762000000     3.115000000
O     4.264000000     4.755000000     1.890000000
C     4.634000000     3.531000000     1.337000000
C     5.389000000     3.615000000     0.197000000
H     5.737000000     4.543000000    -0.248000000
C     5.691000000     2.488000000    -0.504000000
O     6.322000000     2.679000000    -1.664000000
C     6.217000000     1.830000000    -2.719000000
C     5.078000000     1.878000000    -3.449000000
H     4.208000000     2.501000000    -3.257000000
C     7.141000000     0.820000000    -2.982000000
H     8.002000000     0.833000000    -2.319000000
C     6.959000000    -0.153000000    -3.941000000
H     7.714000000    -0.935000000    -3.960000000
C     5.888000000    -0.017000000    -4.780000000
H     5.760000000    -0.800000000    -5.523000000
C     4.964000000     1.109000000    -4.541000000
O     3.897000000     1.354000000    -5.385000000
C     2.763000000     0.596000000    -5.318000000
C     1.631000000     1.183000000    -5.848000000
H     1.756000000     2.048000000    -6.495000000
C     0.380000000     0.523000000    -5.627000000
O    -0.768000000     1.147000000    -6.110000000
C    -2.052000000     0.636000000    -6.293000000
C    -2.301000000    -0.142000000    -7.426000000
H    -1.494000000    -0.267000000    -8.143000000
C    -3.587000000    -0.677000000    -7.612000000
H    -3.761000000    -1.512000000    -8.286000000
C    -4.590000000    -0.463000000    -6.647000000
H    -5.609000000    -0.820000000    -6.767000000
C    -4.352000000     0.490000000    -5.623000000
C    -3.038000000     0.927000000    -5.370000000
H    -2.699000000     1.560000000    -4.554000000
C     0.752000000     1.699000000    -2.602000000
H     1.459000000     2.185000000    -3.270000000
C     1.235000000     0.759000000    -1.739000000
H     2.280000000     0.472000000    -1.813000000
C     0.487000000     0.318000000    -0.697000000
H     0.943000000    -0.377000000     0.012000000
C    -0.843000000     0.724000000    -0.655000000
H    -1.479000000     0.316000000     0.126000000
C    -1.392000000     1.622000000    -1.579000000
H    -2.441000000     1.908000000    -1.555000000
C    -0.562000000     2.167000000    -2.536000000
C    -0.913000000     3.337000000    -3.383000000
O    -2.082000000     3.666000000    -3.466000000
O    -0.165000000     3.922000000    -4.083000000
O    -2.147000000     7.215000000    -7.580000000
H    -2.486000000     7.009000000    -8.451000000
H    -2.929000000     7.321000000    -7.037000000
O    -5.600000000     7.357000000    -3.436000000
H    -5.546000000     6.497000000    -3.021000000
H    -5.444000000     7.977000000    -2.723000000
O    -0.325000000     2.797000000    -9.006000000
H    -0.680000000     3.440000000    -8.393000000
H    -1.080000000     2.516000000    -9.523000000
O     0.547000000     6.699000000     0.068000000
H     1.074000000     5.903000000    -0.005000000
H    -0.023000000     6.680000000    -0.701000000
O    -0.854000000     7.502000000    -2.327000000
H    -1.060000000     8.425000000    -2.471000000
H    -0.945000000     7.098000000    -3.190000000
O    -1.234000000     4.192000000    -6.840000000
H    -0.534000000     3.768000000    -6.344000000
H    -2.038000000     3.934000000    -6.389000000
O    -3.509000000     5.030000000    -9.100000000
H    -4.395000000     5.152000000    -8.760000000
H    -3.010000000     4.698000000    -8.354000000
O     2.482000000     6.905000000    -3.250000000
H     2.015000000     7.730000000    -3.382000000
H     2.193000000     6.349000000    -3.974000000
O    -2.183000000     4.026000000     0.153000000
H    -2.373000000     4.543000000    -0.629000000
H    -1.230000000     3.937000000     0.156000000
O    -5.408000000     5.103000000    -1.846000000
H    -5.304000000     4.351000000    -1.264000000
H    -4.528000000     5.268000000    -2.185000000
O    -2.788000000     5.590000000    -1.943000000
H    -2.197000000     6.321000000    -2.127000000
H    -2.530000000     4.911000000    -2.567000000
O    -5.517000000     5.602000000    -7.091000000
H    -4.774000000     5.746000000    -6.504000000
H    -5.763000000     4.689000000    -6.946000000
O     1.802000000     4.758000000    -2.057000000
H     2.283000000     5.481000000    -2.460000000
H     1.080000000     4.585000000    -2.661000000
O     0.515000000     7.360000000    -7.981000000
H    -0.402000000     7.301000000    -7.713000000
H     0.907000000     6.543000000    -7.673000000
O     2.065000000     5.021000000    -5.238000000
H     1.281000000     4.593000000    -4.894000000
H     2.058000000     4.816000000    -6.173000000
O    -3.862000000     4.138000000    -5.336000000
H    -3.212000000     4.122000000    -4.634000000
H    -4.552000000     3.546000000    -5.038000000
O    -0.979000000     6.383000000    -4.776000000
H    -0.820000000     5.480000000    -4.501000000
H    -1.323000000     6.306000000    -5.666000000
O     1.205000000     3.470000000     0.343000000
H     0.859000000     2.599000000     0.150000000
H     1.581000000     3.768000000    -0.485000000
O     1.798000000     4.630000000    -8.053000000
H     2.409000000     5.149000000    -8.577000000
H     1.429000000     3.998000000    -8.671000000
