215
-1474.84863
C    -1.486000000     2.702000000     4.487000000
H    -0.577000000     2.402000000     5.003000000
C    -2.406000000     1.820000000     4.000000000
C    -3.448000000     2.293000000     3.295000000
H    -4.041000000     1.528000000     2.801000000
C    -2.089000000     0.328000000     3.918000000
O    -1.176000000    -0.075000000     4.980000000
H    -1.604000000     0.021000000     2.980000000
O    -3.244000000    -0.535000000     4.020000000
C    -3.358000000    -1.635000000     3.179000000
C    -4.088000000    -1.426000000     2.018000000
H    -4.746000000    -0.564000000     1.942000000
C    -3.986000000    -2.374000000     1.039000000
O    -4.551000000    -2.029000000    -0.202000000
C    -3.140000000    -3.465000000     1.109000000
C    -3.067000000    -4.541000000    -0.013000000
H    -3.039000000    -5.556000000     0.389000000
C    -1.944000000    -4.388000000    -1.051000000
C    -0.709000000    -5.013000000    -0.921000000
H    -0.468000000    -5.655000000    -0.078000000
H    -4.050000000    -4.464000000    -0.484000000
C    -2.464000000    -3.691000000     2.274000000
H    -1.845000000    -4.580000000     2.364000000
C    -2.523000000    -2.744000000     3.349000000
C    -1.628000000    -2.915000000     4.567000000
H    -1.411000000    -3.971000000     4.736000000
H    -2.076000000    -2.457000000     5.451000000
C    -0.306000000    -2.226000000     4.342000000
C     0.734000000    -3.017000000     3.836000000
H     0.649000000    -4.084000000     3.649000000
C    -0.067000000    -0.895000000     4.656000000
C     1.139000000    -0.267000000     4.326000000
H     1.347000000     0.792000000     4.454000000
C     2.169000000    -1.077000000     3.812000000
O     3.347000000    -0.572000000     3.489000000
C     3.392000000    -0.228000000     2.149000000
C     4.002000000     1.172000000     1.953000000
C     4.772000000     1.485000000     0.821000000
H     5.135000000     0.653000000     0.223000000
C     3.654000000     2.274000000     2.741000000
H     3.012000000     2.064000000     3.593000000
O     4.250000000    -1.176000000     1.525000000
H     2.373000000    -0.289000000     1.742000000
C     1.931000000    -2.425000000     3.614000000
C     2.955000000    -3.339000000     2.935000000
H     2.730000000    -4.366000000     3.232000000
H     3.946000000    -3.091000000     3.320000000
C     2.906000000    -3.213000000     1.423000000
C     2.207000000    -4.141000000     0.635000000
H     1.537000000    -4.878000000     1.071000000
C     3.684000000    -2.238000000     0.794000000
C     3.756000000    -2.180000000    -0.598000000
H     4.246000000    -1.327000000    -1.061000000
C     3.005000000    -3.041000000    -1.364000000
O     3.133000000    -2.926000000    -2.743000000
C     1.921000000    -2.266000000    -3.284000000
C     2.420000000    -1.343000000    -4.372000000
C     3.618000000    -0.606000000    -4.207000000
H     4.355000000    -0.919000000    -3.471000000
C     1.501000000    -0.916000000    -5.360000000
H     0.533000000    -1.399000000    -5.466000000
O     1.043000000    -3.355000000    -3.728000000
H     1.426000000    -1.593000000    -2.568000000
C     2.300000000    -4.116000000    -0.723000000
C     1.614000000    -5.182000000    -1.543000000
H     1.565000000    -6.081000000    -0.925000000
H     2.136000000    -5.443000000    -2.466000000
C     0.264000000    -4.720000000    -1.862000000
C     0.050000000    -3.819000000    -2.910000000
C    -1.142000000    -3.156000000    -2.982000000
H    -1.376000000    -2.578000000    -3.872000000
C    -2.178000000    -3.452000000    -2.097000000
O    -3.385000000    -2.833000000    -2.241000000
C    -3.654000000    -1.736000000    -1.330000000
H    -2.664000000    -1.530000000    -0.898000000
C    -3.985000000    -0.428000000    -2.030000000
C    -5.061000000     0.377000000    -1.603000000
H    -5.596000000     0.097000000    -0.699000000
C    -3.300000000    -0.009000000    -3.197000000
H    -2.472000000    -0.545000000    -3.654000000
C    -3.646000000     1.168000000    -3.782000000
O    -3.172000000     1.511000000    -4.980000000
C    -4.649000000     2.034000000    -3.295000000
H    -4.854000000     2.956000000    -3.833000000
C    -5.324000000     1.596000000    -2.151000000
O    -6.402000000     2.346000000    -1.737000000
C    -6.536000000     2.609000000    -0.368000000
C    -5.607000000     3.432000000     0.318000000
H    -4.820000000     4.021000000    -0.146000000
C    -7.514000000     1.938000000     0.286000000
H    -8.282000000     1.395000000    -0.259000000
C    -7.613000000     1.986000000     1.714000000
H    -8.481000000     1.486000000     2.135000000
C    -6.669000000     2.670000000     2.416000000
H    -6.677000000     2.694000000     3.503000000
C    -5.662000000     3.426000000     1.718000000
O    -4.761000000     4.157000000     2.408000000
C    -3.791000000     3.678000000     3.286000000
C    -2.897000000     4.650000000     3.759000000
H    -3.077000000     5.716000000     3.651000000
C    -1.767000000     4.141000000     4.355000000
O    -0.839000000     4.973000000     4.926000000
C     0.475000000     4.767000000     5.133000000
C     1.351000000     4.603000000     4.092000000
H     0.974000000     4.585000000     3.073000000
C     0.972000000     4.982000000     6.435000000
H     0.375000000     5.054000000     7.341000000
C     2.406000000     4.953000000     6.639000000
H     2.684000000     4.959000000     7.689000000
C     3.227000000     4.829000000     5.552000000
H     4.312000000     4.881000000     5.592000000
C     2.693000000     4.648000000     4.286000000
O     3.638000000     4.633000000     3.297000000
C     4.035000000     3.601000000     2.470000000
C     4.929000000     3.855000000     1.404000000
H     5.189000000     4.861000000     1.085000000
C     5.175000000     2.800000000     0.513000000
O     5.931000000     3.079000000    -0.613000000
C     6.293000000     2.198000000    -1.592000000
C     5.477000000     2.117000000    -2.745000000
H     4.541000000     2.664000000    -2.828000000
C     7.495000000     1.484000000    -1.497000000
H     8.162000000     1.664000000    -0.657000000
C     7.754000000     0.642000000    -2.606000000
H     8.663000000     0.054000000    -2.505000000
C     7.031000000     0.641000000    -3.818000000
H     7.361000000     0.002000000    -4.633000000
C     5.824000000     1.272000000    -3.828000000
O     5.015000000     1.231000000    -4.969000000
C     3.927000000     0.420000000    -5.131000000
C     3.086000000     0.644000000    -6.197000000
H     3.364000000     1.403000000    -6.924000000
C     1.838000000     0.046000000    -6.324000000
O     1.005000000     0.454000000    -7.335000000
C    -0.345000000     0.297000000    -7.179000000
C    -1.074000000    -0.683000000    -7.929000000
H    -0.617000000    -1.302000000    -8.697000000
C    -2.426000000    -0.890000000    -7.686000000
H    -2.870000000    -1.691000000    -8.272000000
C    -3.101000000    -0.246000000    -6.673000000
H    -4.153000000    -0.451000000    -6.494000000
C    -2.481000000     0.751000000    -5.898000000
C    -1.077000000     1.012000000    -6.155000000
H    -0.466000000     1.673000000    -5.545000000
C     0.986000000     1.676000000    -1.628000000
H     1.908000000     1.818000000    -2.186000000
C     1.066000000     0.744000000    -0.550000000
H     2.042000000     0.302000000    -0.365000000
C    -0.083000000     0.416000000     0.190000000
H     0.036000000    -0.210000000     1.077000000
C    -1.285000000     0.963000000    -0.160000000
H    -2.141000000     0.679000000     0.446000000
C    -1.356000000     1.947000000    -1.176000000
H    -2.262000000     2.511000000    -1.377000000
C    -0.226000000     2.240000000    -1.997000000
C    -0.326000000     3.338000000    -3.047000000
O    -1.378000000     3.928000000    -3.242000000
O     0.641000000     3.835000000    -3.639000000
O     4.584000000     6.538000000    -1.641000000
H     5.348000000     6.538000000    -2.218000000
H     4.109000000     5.739000000    -1.871000000
O    -3.831000000     5.082000000    -2.258000000
H    -2.960000000     4.803000000    -2.540000000
H    -4.141000000     5.650000000    -2.964000000
O     2.456000000     8.297000000    -1.696000000
H     2.363000000     8.643000000    -0.809000000
H     3.130000000     7.622000000    -1.620000000
O    -0.734000000     6.079000000    -1.914000000
H    -1.042000000     5.358000000    -2.464000000
H    -0.205000000     5.656000000    -1.238000000
O    -2.107000000     4.420000000    -5.903000000
H    -1.858000000     4.471000000    -4.980000000
H    -2.139000000     3.482000000    -6.091000000
O    -1.961000000     7.949000000    -4.839000000
H    -1.118000000     8.168000000    -4.441000000
H    -2.197000000     8.728000000    -5.342000000
O    -6.560000000     5.010000000    -2.827000000
H    -7.105000000     5.511000000    -2.219000000
H    -5.790000000     4.766000000    -2.313000000
O    -4.017000000     6.158000000    -4.631000000
H    -3.773000000     5.405000000    -5.169000000
H    -3.309000000     6.788000000    -4.765000000
O    -0.326000000     6.849000000     1.995000000
H    -0.722000000     7.299000000     1.249000000
H    -0.483000000     7.433000000     2.737000000
O     1.380000000     3.635000000    -8.370000000
H     0.794000000     4.134000000    -8.939000000
H     1.040000000     3.781000000    -7.488000000
O    -3.429000000     9.040000000    -2.258000000
H    -3.176000000     8.722000000    -3.124000000
H    -3.353000000     9.992000000    -2.320000000
O    -1.609000000     8.082000000    -0.283000000
H    -1.374000000     7.241000000    -0.674000000
H    -2.376000000     8.371000000    -0.777000000
O     2.570000000     4.714000000    -1.974000000
H     2.071000000     4.366000000    -1.235000000
H     1.984000000     4.620000000    -2.725000000
O     0.141000000     8.531000000    -3.114000000
H    -0.249000000     7.822000000    -2.603000000
H     1.071000000     8.504000000    -2.891000000
O     0.630000000     5.082000000    -5.884000000
H    -0.279000000     5.109000000    -6.181000000
H     0.581000000     4.738000000    -4.992000000
O     4.279000000     6.801000000    -5.310000000
H     4.509000000     5.888000000    -5.134000000
H     3.452000000     6.751000000    -5.789000000
O     0.452000000     4.747000000     0.199000000
H     0.389000000     3.897000000     0.636000000
H     0.298000000     5.386000000     0.894000000
O     3.574000000     4.068000000    -5.564000000
H     2.700000000     3.770000000    -5.311000000
H     4.167000000     3.592000000    -4.983000000
O     0.848000000     6.646000000    -8.340000000
H     1.234000000     7.522000000    -8.342000000
H     0.849000000     6.385000000    -7.419000000
