215
-1423.87087
C    -1.187000000     3.072000000     4.045000000
H    -0.165000000     2.807000000     4.306000000
C    -2.155000000     2.084000000     3.852000000
C    -3.307000000     2.516000000     3.248000000
H    -4.007000000     1.773000000     2.872000000
C    -1.914000000     0.572000000     4.028000000
O    -0.928000000     0.278000000     5.127000000
H    -1.452000000     0.296000000     3.068000000
O    -3.060000000    -0.270000000     4.086000000
C    -3.084000000    -1.353000000     3.314000000
C    -3.710000000    -1.171000000     2.081000000
H    -4.312000000    -0.309000000     1.809000000
C    -3.760000000    -2.295000000     1.293000000
O    -4.325000000    -2.140000000     0.066000000
C    -3.047000000    -3.455000000     1.522000000
C    -3.054000000    -4.592000000     0.552000000
H    -2.959000000    -5.577000000     1.015000000
C    -1.908000000    -4.402000000    -0.463000000
C    -0.618000000    -4.936000000    -0.226000000
H    -0.401000000    -5.651000000     0.563000000
H    -3.983000000    -4.585000000    -0.022000000
C    -2.290000000    -3.518000000     2.696000000
H    -1.735000000    -4.447000000     2.801000000
C    -2.286000000    -2.426000000     3.567000000
C    -1.341000000    -2.575000000     4.856000000
H    -1.305000000    -3.641000000     5.089000000
H    -1.823000000    -2.067000000     5.693000000
C     0.014000000    -1.869000000     4.578000000
C     1.142000000    -2.652000000     4.214000000
H     1.032000000    -3.733000000     4.189000000
C     0.144000000    -0.476000000     4.651000000
C     1.327000000     0.114000000     4.323000000
H     1.480000000     1.182000000     4.456000000
C     2.415000000    -0.625000000     3.850000000
O     3.566000000     0.022000000     3.333000000
C     3.582000000     0.127000000     1.895000000
C     3.839000000     1.570000000     1.531000000
C     3.924000000     1.893000000     0.147000000
H     3.902000000     1.026000000    -0.508000000
C     3.801000000     2.616000000     2.441000000
H     3.512000000     2.411000000     3.469000000
O     4.499000000    -0.811000000     1.296000000
H     2.631000000    -0.149000000     1.416000000
C     2.287000000    -2.011000000     3.747000000
C     3.380000000    -2.872000000     3.185000000
H     3.250000000    -3.858000000     3.636000000
H     4.335000000    -2.551000000     3.607000000
C     3.419000000    -2.977000000     1.718000000
C     2.746000000    -4.057000000     1.111000000
H     2.242000000    -4.766000000     1.764000000
C     4.023000000    -2.056000000     0.842000000
C     3.969000000    -2.225000000    -0.554000000
H     4.456000000    -1.440000000    -1.128000000
C     3.363000000    -3.330000000    -1.131000000
O     3.302000000    -3.302000000    -2.504000000
C     2.013000000    -2.757000000    -3.036000000
C     2.312000000    -1.874000000    -4.306000000
C     3.492000000    -1.088000000    -4.368000000
H     4.219000000    -1.046000000    -3.562000000
C     1.370000000    -1.753000000    -5.312000000
H     0.409000000    -2.259000000    -5.286000000
O     1.108000000    -3.823000000    -3.268000000
H     1.696000000    -2.127000000    -2.191000000
C     2.702000000    -4.254000000    -0.257000000
C     1.748000000    -5.311000000    -0.796000000
H     1.561000000    -6.157000000    -0.130000000
H     2.219000000    -5.795000000    -1.654000000
C     0.387000000    -4.695000000    -1.150000000
C     0.122000000    -4.026000000    -2.318000000
C    -1.137000000    -3.401000000    -2.578000000
H    -1.258000000    -2.726000000    -3.421000000
C    -2.117000000    -3.592000000    -1.575000000
O    -3.258000000    -2.994000000    -1.748000000
C    -3.515000000    -1.757000000    -1.055000000
H    -2.570000000    -1.314000000    -0.707000000
C    -4.124000000    -0.681000000    -1.968000000
C    -4.878000000     0.357000000    -1.441000000
H    -5.189000000     0.326000000    -0.400000000
C    -3.594000000    -0.556000000    -3.258000000
H    -2.911000000    -1.316000000    -3.630000000
C    -3.790000000     0.572000000    -3.992000000
O    -3.288000000     0.691000000    -5.285000000
C    -4.478000000     1.635000000    -3.400000000
H    -4.589000000     2.585000000    -3.917000000
C    -4.985000000     1.612000000    -2.125000000
O    -5.645000000     2.763000000    -1.585000000
C    -6.061000000     2.808000000    -0.254000000
C    -5.261000000     3.408000000     0.703000000
H    -4.330000000     3.888000000     0.412000000
C    -7.267000000     2.296000000     0.181000000
H    -7.934000000     1.848000000    -0.552000000
C    -7.684000000     2.420000000     1.501000000
H    -8.671000000     2.030000000     1.738000000
C    -6.821000000     2.990000000     2.436000000
H    -7.242000000     3.101000000     3.432000000
C    -5.690000000     3.592000000     2.018000000
O    -4.897000000     4.261000000     2.905000000
C    -3.740000000     3.831000000     3.358000000
C    -2.869000000     4.774000000     3.902000000
H    -3.361000000     5.738000000     4.002000000
C    -1.555000000     4.389000000     4.177000000
O    -0.574000000     5.382000000     4.312000000
C     0.829000000     5.231000000     4.563000000
C     1.751000000     5.021000000     3.551000000
H     1.373000000     4.879000000     2.542000000
C     1.192000000     5.403000000     5.864000000
H     0.433000000     5.564000000     6.626000000
C     2.532000000     5.433000000     6.156000000
H     2.820000000     5.502000000     7.202000000
C     3.505000000     5.174000000     5.187000000
H     4.561000000     5.059000000     5.417000000
C     3.146000000     5.108000000     3.876000000
O     4.069000000     4.978000000     2.902000000
C     4.001000000     3.956000000     1.995000000
C     4.144000000     4.234000000     0.690000000
H     4.323000000     5.263000000     0.388000000
C     4.145000000     3.171000000    -0.238000000
O     4.223000000     3.369000000    -1.591000000
C     4.993000000     2.603000000    -2.422000000
C     4.448000000     2.018000000    -3.568000000
H     3.394000000     2.015000000    -3.832000000
C     6.364000000     2.373000000    -2.046000000
H     6.716000000     2.895000000    -1.160000000
C     7.178000000     1.547000000    -2.759000000
H     8.104000000     1.282000000    -2.255000000
C     6.562000000     0.854000000    -3.810000000
H     7.192000000     0.105000000    -4.284000000
C     5.313000000     1.235000000    -4.346000000
O     4.882000000     0.566000000    -5.552000000
C     3.790000000    -0.295000000    -5.515000000
C     2.823000000    -0.272000000    -6.506000000
H     2.973000000     0.343000000    -7.390000000
C     1.621000000    -0.961000000    -6.416000000
O     0.696000000    -0.935000000    -7.405000000
C    -0.644000000    -1.104000000    -7.234000000
C    -1.425000000    -2.122000000    -7.829000000
H    -0.916000000    -2.864000000    -8.439000000
C    -2.799000000    -2.225000000    -7.532000000
H    -3.460000000    -2.959000000    -7.986000000
C    -3.329000000    -1.351000000    -6.650000000
H    -4.388000000    -1.529000000    -6.479000000
C    -2.618000000    -0.246000000    -6.103000000
C    -1.290000000    -0.171000000    -6.477000000
H    -0.745000000     0.666000000    -6.049000000
C     0.289000000     0.788000000    -2.248000000
H     0.829000000     0.284000000    -3.046000000
C     0.295000000     0.080000000    -1.037000000
H     0.823000000    -0.858000000    -0.890000000
C    -0.524000000     0.454000000    -0.017000000
H    -0.540000000    -0.107000000     0.891000000
C    -1.324000000     1.546000000    -0.156000000
H    -1.974000000     1.823000000     0.670000000
C    -1.246000000     2.352000000    -1.244000000
H    -1.804000000     3.280000000    -1.151000000
C    -0.504000000     1.943000000    -2.342000000
C    -0.605000000     2.766000000    -3.621000000
O    -1.347000000     3.704000000    -3.677000000
O     0.343000000     2.729000000    -4.379000000
O     3.762000000     6.217000000    -4.706000000
H     4.454000000     5.937000000    -5.305000000
H     3.170000000     5.466000000    -4.657000000
O    -3.598000000     5.101000000    -2.918000000
H    -2.898000000     4.493000000    -3.158000000
H    -4.291000000     4.542000000    -2.569000000
O     2.080000000     7.994000000    -3.189000000
H     2.710000000     7.420000000    -3.626000000
H     1.297000000     7.453000000    -3.083000000
O     0.248000000     0.901000000    -9.535000000
H     0.348000000     0.880000000    -8.583000000
H     0.988000000     0.390000000    -9.864000000
O     1.054000000     5.663000000    -5.723000000
H     1.503000000     4.972000000    -5.235000000
H     0.127000000     5.533000000    -5.522000000
O    -1.731000000     4.891000000    -5.980000000
H    -1.581000000     4.294000000    -5.247000000
H    -2.401000000     4.457000000    -6.508000000
O    -3.569000000     7.592000000    -5.345000000
H    -2.793000000     8.152000000    -5.377000000
H    -3.355000000     6.923000000    -4.694000000
O    -1.447000000     5.446000000     1.118000000
H    -1.930000000     5.410000000     1.944000000
H    -1.262000000     6.376000000     0.988000000
O    -1.025000000     3.406000000    -8.967000000
H    -1.956000000     3.432000000    -8.749000000
H    -0.850000000     2.486000000    -9.165000000
O    -0.398000000     6.143000000    -2.762000000
H    -0.819000000     5.469000000    -3.296000000
H    -0.119000000     5.681000000    -1.971000000
O    -4.220000000     7.592000000    -1.612000000
H    -3.543000000     7.620000000    -0.935000000
H    -3.842000000     7.052000000    -2.306000000
O     1.963000000     7.214000000    -0.224000000
H     2.614000000     7.270000000    -0.924000000
H     1.750000000     6.282000000    -0.169000000
O     2.225000000     4.244000000    -3.799000000
H     2.272000000     4.186000000    -2.845000000
H     1.474000000     3.698000000    -4.035000000
O     3.946000000     3.647000000    -6.718000000
H     4.390000000     3.078000000    -6.089000000
H     3.021000000     3.410000000    -6.645000000
O    -1.356000000     8.760000000    -2.267000000
H    -1.516000000     8.264000000    -1.464000000
H    -0.718000000     8.235000000    -2.750000000
O    -1.141000000     7.860000000    -7.006000000
H    -1.576000000     7.014000000    -6.901000000
H    -0.215000000     7.674000000    -6.852000000
O    -3.800000000     4.131000000    -8.282000000
H    -3.876000000     4.683000000    -9.061000000
H    -4.641000000     3.678000000    -8.227000000
O     1.077000000     4.368000000     0.036000000
H     0.253000000     4.627000000     0.449000000
H     1.045000000     3.411000000     0.019000000
O     1.097000000     2.826000000    -7.111000000
H     0.361000000     3.400000000    -7.323000000
H     1.041000000     2.705000000    -6.163000000
