215
-1461.60205
C    -1.544000000     3.324000000     4.106000000
H    -0.485000000     3.129000000     4.256000000
C    -2.444000000     2.262000000     3.886000000
C    -3.769000000     2.546000000     3.501000000
H    -4.384000000     1.679000000     3.275000000
C    -1.941000000     0.856000000     3.815000000
O    -0.766000000     0.766000000     4.737000000
H    -1.576000000     0.728000000     2.785000000
O    -2.954000000    -0.170000000     4.117000000
C    -2.770000000    -1.376000000     3.431000000
C    -3.494000000    -1.553000000     2.259000000
H    -4.325000000    -0.876000000     2.082000000
C    -3.381000000    -2.665000000     1.520000000
O    -4.147000000    -2.676000000     0.370000000
C    -2.559000000    -3.700000000     1.867000000
C    -2.475000000    -4.892000000     0.946000000
H    -2.012000000    -5.626000000     1.609000000
C    -1.512000000    -4.726000000    -0.203000000
C    -0.166000000    -4.983000000     0.018000000
H     0.280000000    -5.318000000     0.951000000
H    -3.429000000    -5.334000000     0.650000000
C    -1.763000000    -3.527000000     2.962000000
H    -1.043000000    -4.298000000     3.224000000
C    -1.859000000    -2.353000000     3.732000000
C    -0.901000000    -2.182000000     4.919000000
H    -0.569000000    -3.094000000     5.419000000
H    -1.400000000    -1.548000000     5.654000000
C     0.354000000    -1.409000000     4.510000000
C     1.487000000    -2.155000000     4.111000000
H     1.355000000    -3.227000000     4.231000000
C     0.319000000    -0.030000000     4.399000000
C     1.502000000     0.625000000     4.014000000
H     1.528000000     1.710000000     3.952000000
C     2.611000000    -0.163000000     3.560000000
O     3.617000000     0.607000000     3.011000000
C     3.717000000     0.602000000     1.580000000
C     4.111000000     1.958000000     1.032000000
C     5.031000000     2.168000000    -0.056000000
H     5.736000000     1.428000000    -0.426000000
C     3.411000000     3.006000000     1.574000000
H     2.810000000     2.777000000     2.450000000
O     4.692000000    -0.382000000     1.163000000
H     2.744000000     0.239000000     1.217000000
C     2.637000000    -1.526000000     3.600000000
C     3.794000000    -2.329000000     3.178000000
H     3.851000000    -3.302000000     3.669000000
H     4.720000000    -1.840000000     3.488000000
C     3.753000000    -2.604000000     1.703000000
C     3.114000000    -3.765000000     1.217000000
H     2.727000000    -4.530000000     1.885000000
C     4.236000000    -1.694000000     0.766000000
C     4.068000000    -1.877000000    -0.584000000
H     4.363000000    -1.161000000    -1.346000000
C     3.449000000    -3.017000000    -1.045000000
O     3.250000000    -3.019000000    -2.348000000
C     1.990000000    -2.619000000    -2.719000000
C     2.154000000    -1.674000000    -3.890000000
C     3.222000000    -0.798000000    -3.991000000
H     4.074000000    -0.837000000    -3.316000000
C     1.071000000    -1.482000000    -4.770000000
H     0.238000000    -2.181000000    -4.764000000
O     1.306000000    -3.784000000    -3.093000000
H     1.579000000    -2.010000000    -1.900000000
C     2.892000000    -3.971000000    -0.162000000
C     2.215000000    -5.263000000    -0.633000000
H     2.199000000    -5.909000000     0.247000000
H     2.651000000    -5.784000000    -1.488000000
C     0.784000000    -4.830000000    -0.991000000
C     0.417000000    -4.340000000    -2.193000000
C    -0.959000000    -3.998000000    -2.381000000
H    -1.277000000    -3.570000000    -3.328000000
C    -1.926000000    -4.159000000    -1.392000000
O    -3.138000000    -3.537000000    -1.626000000
C    -3.409000000    -2.379000000    -0.902000000
H    -2.439000000    -1.955000000    -0.602000000
C    -4.159000000    -1.272000000    -1.711000000
C    -4.929000000    -0.276000000    -1.087000000
H    -5.069000000    -0.331000000    -0.011000000
C    -4.000000000    -1.315000000    -3.068000000
H    -3.267000000    -1.987000000    -3.507000000
C    -4.578000000    -0.295000000    -3.839000000
O    -4.379000000    -0.219000000    -5.219000000
C    -5.302000000     0.731000000    -3.151000000
H    -5.632000000     1.580000000    -3.745000000
C    -5.494000000     0.770000000    -1.792000000
O    -6.103000000     1.878000000    -1.223000000
C    -6.435000000     2.131000000     0.088000000
C    -5.718000000     3.036000000     0.900000000
H    -4.777000000     3.449000000     0.547000000
C    -7.534000000     1.459000000     0.570000000
H    -8.067000000     0.795000000    -0.106000000
C    -8.113000000     1.814000000     1.852000000
H    -9.045000000     1.373000000     2.194000000
C    -7.407000000     2.807000000     2.652000000
H    -7.722000000     3.025000000     3.669000000
C    -6.206000000     3.298000000     2.198000000
O    -5.479000000     4.141000000     3.017000000
C    -4.220000000     3.901000000     3.442000000
C    -3.342000000     4.919000000     3.784000000
H    -3.709000000     5.941000000     3.810000000
C    -1.971000000     4.698000000     4.084000000
O    -1.118000000     5.715000000     4.431000000
C     0.237000000     5.576000000     4.415000000
C     0.827000000     5.597000000     3.118000000
H     0.238000000     5.806000000     2.228000000
C     1.030000000     5.398000000     5.546000000
H     0.428000000     5.197000000     6.428000000
C     2.363000000     5.189000000     5.354000000
H     2.952000000     4.993000000     6.247000000
C     3.027000000     5.158000000     4.105000000
H     4.080000000     4.911000000     3.995000000
C     2.211000000     5.352000000     2.917000000
O     2.830000000     5.409000000     1.647000000
C     3.635000000     4.330000000     1.146000000
C     4.565000000     4.528000000     0.107000000
H     4.776000000     5.528000000    -0.265000000
C     5.182000000     3.464000000    -0.555000000
O     6.115000000     3.661000000    -1.601000000
C     6.225000000     2.757000000    -2.628000000
C     5.129000000     2.286000000    -3.263000000
H     4.200000000     2.849000000    -3.241000000
C     7.483000000     2.180000000    -2.949000000
H     8.412000000     2.529000000    -2.506000000
C     7.627000000     1.185000000    -3.882000000
H     8.671000000     0.886000000    -3.933000000
C     6.502000000     0.822000000    -4.627000000
H     6.618000000     0.149000000    -5.473000000
C     5.325000000     1.364000000    -4.299000000
O     4.265000000     1.070000000    -5.170000000
C     3.193000000     0.221000000    -4.942000000
C     2.151000000     0.330000000    -5.895000000
H     2.136000000     1.147000000    -6.612000000
C     1.122000000    -0.522000000    -5.798000000
O     0.158000000    -0.418000000    -6.764000000
C    -1.148000000    -1.027000000    -6.712000000
C    -1.456000000    -2.142000000    -7.473000000
H    -0.729000000    -2.492000000    -8.201000000
C    -2.781000000    -2.636000000    -7.455000000
H    -3.141000000    -3.422000000    -8.113000000
C    -3.753000000    -2.028000000    -6.656000000
H    -4.757000000    -2.422000000    -6.518000000
C    -3.410000000    -0.918000000    -5.930000000
C    -2.106000000    -0.434000000    -5.833000000
H    -1.870000000     0.403000000    -5.180000000
C     0.881000000     0.664000000    -1.049000000
H     1.811000000     0.669000000    -1.613000000
C     0.711000000    -0.238000000    -0.011000000
H     1.468000000    -1.012000000     0.081000000
C    -0.511000000    -0.284000000     0.648000000
H    -0.739000000    -1.106000000     1.402000000
C    -1.523000000     0.579000000     0.285000000
H    -2.470000000     0.625000000     0.817000000
C    -1.260000000     1.592000000    -0.657000000
H    -2.095000000     2.270000000    -0.809000000
C    -0.070000000     1.669000000    -1.382000000
C     0.395000000     2.830000000    -2.233000000
O    -0.307000000     3.870000000    -2.243000000
O     1.466000000     2.726000000    -2.822000000
O     3.049000000     5.337000000    -2.530000000
H     2.722000000     4.500000000    -2.858000000
H     2.280000000     5.764000000    -2.154000000
O    -2.133000000     5.016000000    -0.691000000
H    -1.483000000     4.459000000    -1.118000000
H    -2.971000000     4.729000000    -1.055000000
O    -2.537000000     7.059000000    -2.753000000
H    -2.311000000     6.524000000    -1.992000000
H    -3.112000000     7.741000000    -2.405000000
O    -2.222000000     3.303000000    -7.826000000
H    -2.474000000     2.991000000    -8.695000000
H    -2.816000000     2.850000000    -7.228000000
O    -4.352000000     2.741000000    -6.120000000
H    -3.841000000     2.759000000    -5.311000000
H    -4.981000000     3.455000000    -6.021000000
O     0.920000000     7.812000000    -5.584000000
H     0.525000000     6.942000000    -5.649000000
H     0.504000000     8.207000000    -4.818000000
O    -2.887000000     2.798000000    -3.665000000
H    -2.657000000     1.963000000    -3.256000000
H    -2.310000000     3.436000000    -3.246000000
O     5.058000000     6.848000000    -3.801000000
H     4.483000000     6.338000000    -3.230000000
H     5.942000000     6.574000000    -3.556000000
O    -1.899000000     7.207000000     0.640000000
H    -2.830000000     7.201000000     0.863000000
H    -1.813000000     6.545000000    -0.046000000
O    -4.531000000     4.139000000    -1.870000000
H    -5.433000000     3.821000000    -1.894000000
H    -4.117000000     3.746000000    -2.638000000
O     0.485000000     8.703000000     0.610000000
H    -0.051000000     7.972000000     0.302000000
H    -0.089000000     9.188000000     1.203000000
O    -0.533000000     5.540000000    -4.473000000
H    -1.458000000     5.748000000    -4.338000000
H    -0.225000000     5.251000000    -3.613000000
O     3.735000000     3.402000000    -6.553000000
H     3.873000000     2.814000000    -5.810000000
H     2.861000000     3.767000000    -6.410000000
O    -1.789000000     5.926000000    -7.413000000
H    -2.184000000     6.206000000    -6.587000000
H    -1.833000000     4.970000000    -7.387000000
O    -0.797000000     8.896000000    -3.535000000
H    -1.321000000     8.096000000    -3.494000000
H    -0.749000000     9.198000000    -2.629000000
O    -3.417000000     6.236000000    -5.383000000
H    -3.411000000     6.712000000    -4.552000000
H    -4.256000000     5.774000000    -5.389000000
O     0.820000000     6.267000000    -0.749000000
H     1.434000000     6.193000000    -0.018000000
H     0.259000000     5.495000000    -0.670000000
O     1.112000000     3.379000000    -5.495000000
H     0.669000000     4.193000000    -5.257000000
H     1.449000000     3.039000000    -4.666000000
O     0.482000000     2.201000000    -8.067000000
H     0.687000000     2.369000000    -7.147000000
H    -0.381000000     2.593000000    -8.195000000
