215
-1448.05388
C    -1.386000000     3.676000000     3.728000000
H    -0.377000000     3.452000000     4.066000000
C    -2.341000000     2.672000000     3.459000000
C    -3.637000000     2.908000000     2.902000000
H    -4.323000000     2.094000000     2.681000000
C    -1.860000000     1.226000000     3.571000000
O    -1.073000000     1.171000000     4.768000000
H    -1.174000000     0.866000000     2.790000000
O    -3.043000000     0.410000000     3.721000000
C    -2.968000000    -0.869000000     3.223000000
C    -3.677000000    -1.097000000     2.053000000
H    -4.309000000    -0.311000000     1.647000000
C    -3.646000000    -2.321000000     1.445000000
O    -4.180000000    -2.356000000     0.196000000
C    -2.961000000    -3.378000000     1.972000000
C    -2.857000000    -4.721000000     1.255000000
H    -2.641000000    -5.484000000     2.006000000
C    -1.777000000    -4.796000000     0.235000000
C    -0.516000000    -5.110000000     0.660000000
H    -0.359000000    -5.335000000     1.712000000
H    -3.738000000    -5.087000000     0.724000000
C    -2.214000000    -3.156000000     3.186000000
H    -1.556000000    -3.883000000     3.656000000
C    -2.237000000    -1.889000000     3.855000000
C    -1.363000000    -1.635000000     5.108000000
H    -1.148000000    -2.611000000     5.546000000
H    -1.970000000    -1.077000000     5.824000000
C    -0.050000000    -0.932000000     4.744000000
C     1.123000000    -1.729000000     4.543000000
H     1.096000000    -2.816000000     4.572000000
C     0.059000000     0.458000000     4.676000000
C     1.268000000     1.001000000     4.277000000
H     1.339000000     2.085000000     4.237000000
C     2.408000000     0.227000000     4.027000000
O     3.533000000     0.843000000     3.497000000
C     3.616000000     0.768000000     2.029000000
C     3.810000000     2.110000000     1.358000000
C     4.020000000     2.205000000    -0.008000000
H     3.866000000     1.303000000    -0.596000000
C     3.776000000     3.305000000     2.050000000
H     3.563000000     3.225000000     3.113000000
O     4.606000000    -0.284000000     1.655000000
H     2.642000000     0.314000000     1.790000000
C     2.363000000    -1.114000000     4.173000000
C     3.530000000    -1.990000000     3.788000000
H     3.478000000    -2.973000000     4.261000000
H     4.487000000    -1.574000000     4.109000000
C     3.580000000    -2.343000000     2.314000000
C     2.887000000    -3.503000000     1.990000000
H     2.382000000    -4.108000000     2.738000000
C     4.169000000    -1.524000000     1.348000000
C     4.140000000    -1.916000000     0.026000000
H     4.575000000    -1.326000000    -0.777000000
C     3.406000000    -3.086000000    -0.325000000
O     3.393000000    -3.374000000    -1.708000000
C     2.162000000    -3.194000000    -2.458000000
C     2.291000000    -2.546000000    -3.768000000
C     3.246000000    -1.542000000    -3.943000000
H     3.784000000    -1.290000000    -3.032000000
C     1.496000000    -2.894000000    -4.808000000
H     0.808000000    -3.723000000    -4.662000000
O     1.379000000    -4.432000000    -2.407000000
H     1.590000000    -2.481000000    -1.846000000
C     2.811000000    -3.902000000     0.682000000
C     1.983000000    -5.125000000     0.327000000
H     1.849000000    -5.659000000     1.270000000
H     2.662000000    -5.730000000    -0.278000000
C     0.572000000    -4.943000000    -0.183000000
C     0.325000000    -4.565000000    -1.532000000
C    -0.921000000    -4.183000000    -1.944000000
H    -1.007000000    -3.690000000    -2.909000000
C    -1.989000000    -4.261000000    -1.070000000
O    -3.187000000    -3.621000000    -1.434000000
C    -3.289000000    -2.289000000    -0.930000000
H    -2.324000000    -1.848000000    -0.642000000
C    -3.792000000    -1.289000000    -1.987000000
C    -4.707000000    -0.295000000    -1.612000000
H    -5.049000000    -0.275000000    -0.580000000
C    -3.265000000    -1.277000000    -3.270000000
H    -2.512000000    -2.014000000    -3.538000000
C    -3.634000000    -0.315000000    -4.186000000
O    -3.002000000    -0.212000000    -5.440000000
C    -4.443000000     0.706000000    -3.782000000
H    -4.640000000     1.521000000    -4.474000000
C    -4.848000000     0.802000000    -2.486000000
O    -5.623000000     1.838000000    -2.141000000
C    -6.108000000     2.282000000    -0.905000000
C    -5.382000000     3.277000000    -0.202000000
H    -4.388000000     3.608000000    -0.494000000
C    -7.320000000     1.890000000    -0.453000000
H    -7.906000000     1.133000000    -0.969000000
C    -7.762000000     2.271000000     0.779000000
H    -8.727000000     2.008000000     1.203000000
C    -6.971000000     3.211000000     1.474000000
H    -7.487000000     3.673000000     2.312000000
C    -5.757000000     3.653000000     1.076000000
O    -5.012000000     4.569000000     1.785000000
C    -3.918000000     4.242000000     2.531000000
C    -2.998000000     5.249000000     2.893000000
H    -3.234000000     6.250000000     2.543000000
C    -1.728000000     5.015000000     3.433000000
O    -0.862000000     6.089000000     3.499000000
C     0.467000000     5.978000000     3.845000000
C     1.403000000     5.847000000     2.824000000
H     1.149000000     5.927000000     1.770000000
C     0.868000000     6.252000000     5.219000000
H     0.095000000     6.249000000     5.983000000
C     2.210000000     6.181000000     5.528000000
H     2.547000000     6.159000000     6.561000000
C     3.157000000     5.965000000     4.502000000
H     4.227000000     5.887000000     4.680000000
C     2.744000000     5.793000000     3.198000000
O     3.668000000     5.686000000     2.176000000
C     3.855000000     4.535000000     1.396000000
C     4.117000000     4.642000000     0.027000000
H     4.082000000     5.558000000    -0.558000000
C     4.169000000     3.443000000    -0.666000000
O     4.480000000     3.421000000    -2.029000000
C     5.054000000     2.336000000    -2.641000000
C     4.389000000     1.659000000    -3.664000000
H     3.376000000     1.913000000    -3.967000000
C     6.383000000     2.090000000    -2.382000000
H     6.934000000     2.773000000    -1.740000000
C     7.039000000     1.095000000    -3.117000000
H     8.110000000     1.060000000    -2.935000000
C     6.358000000     0.285000000    -4.005000000
H     6.751000000    -0.520000000    -4.621000000
C     5.069000000     0.685000000    -4.325000000
O     4.339000000     0.090000000    -5.305000000
C     3.376000000    -0.839000000    -5.111000000
C     2.575000000    -1.223000000    -6.166000000
H     2.783000000    -0.667000000    -7.077000000
C     1.704000000    -2.277000000    -6.067000000
O     0.839000000    -2.568000000    -7.120000000
C    -0.551000000    -2.465000000    -7.039000000
C    -1.438000000    -3.405000000    -7.597000000
H    -1.009000000    -4.245000000    -8.139000000
C    -2.836000000    -3.328000000    -7.489000000
H    -3.421000000    -4.139000000    -7.916000000
C    -3.384000000    -2.336000000    -6.703000000
H    -4.439000000    -2.284000000    -6.447000000
C    -2.507000000    -1.337000000    -6.098000000
C    -1.134000000    -1.451000000    -6.324000000
H    -0.546000000    -0.689000000    -5.819000000
C     1.094000000     0.976000000    -1.893000000
H     2.034000000     1.058000000    -2.432000000
C     0.956000000     0.153000000    -0.807000000
H     1.847000000    -0.347000000    -0.436000000
C    -0.302000000    -0.048000000    -0.138000000
H    -0.345000000    -0.717000000     0.726000000
C    -1.344000000     0.802000000    -0.481000000
H    -2.273000000     0.704000000     0.074000000
C    -1.176000000     1.770000000    -1.484000000
H    -1.971000000     2.482000000    -1.694000000
C    -0.007000000     1.801000000    -2.283000000
C     0.174000000     2.727000000    -3.466000000
O    -0.849000000     3.149000000    -3.967000000
O     1.246000000     3.035000000    -3.952000000
O     2.188000000     6.577000000    -5.789000000
H     2.813000000     6.481000000    -5.070000000
H     1.882000000     5.687000000    -5.961000000
O    -3.480000000     5.514000000    -6.880000000
H    -2.794000000     5.091000000    -7.396000000
H    -3.459000000     6.429000000    -7.159000000
O    -0.906000000     5.659000000     0.051000000
H    -0.833000000     5.562000000    -0.898000000
H    -0.491000000     4.873000000     0.405000000
O     2.591000000     2.472000000    -8.583000000
H     2.242000000     2.983000000    -7.852000000
H     3.522000000     2.374000000    -8.384000000
O    -0.560000000     7.118000000    -6.136000000
H     0.375000000     6.948000000    -6.025000000
H    -0.925000000     6.279000000    -6.417000000
O    -1.369000000     2.422000000    -6.337000000
H    -1.237000000     2.765000000    -5.454000000
H    -1.925000000     1.653000000    -6.215000000
O     3.525000000     5.378000000    -8.189000000
H     2.981000000     5.856000000    -8.815000000
H     2.902000000     4.871000000    -7.668000000
O    -5.461000000     5.177000000    -2.841000000
H    -4.702000000     5.071000000    -3.414000000
H    -5.087000000     5.357000000    -1.979000000
O     2.538000000     7.629000000    -2.408000000
H     3.177000000     7.635000000    -1.696000000
H     2.518000000     6.719000000    -2.705000000
O    -4.148000000     0.163000000    -8.307000000
H    -4.741000000     0.728000000    -7.811000000
H    -3.709000000    -0.366000000    -7.641000000
O    -3.219000000     4.697000000    -4.250000000
H    -2.595000000     3.971000000    -4.255000000
H    -3.401000000     4.863000000    -5.175000000
O    -5.422000000     3.882000000    -6.220000000
H    -5.725000000     3.452000000    -7.020000000
H    -4.695000000     4.435000000    -6.505000000
O    -0.574000000     5.537000000    -2.643000000
H    -0.578000000     4.700000000    -3.107000000
H    -0.266000000     6.169000000    -3.292000000
O    -3.127000000     7.401000000    -3.354000000
H    -3.078000000     6.577000000    -3.840000000
H    -3.236000000     7.134000000    -2.441000000
O    -3.545000000     6.591000000    -0.376000000
H    -2.915000000     5.884000000    -0.235000000
H    -3.195000000     7.327000000     0.126000000
O    -0.935000000     4.969000000    -8.073000000
H    -0.936000000     5.612000000    -8.782000000
H    -0.626000000     4.161000000    -8.484000000
O     2.900000000     4.986000000    -3.668000000
H     2.205000000     4.347000000    -3.827000000
H     3.640000000     4.463000000    -3.359000000
O     1.450000000     4.131000000    -6.341000000
H     0.526000000     3.907000000    -6.448000000
H     1.686000000     3.772000000    -5.486000000
O    -0.792000000     2.069000000    -8.968000000
H    -0.925000000     2.271000000    -8.042000000
H    -1.267000000     1.250000000    -9.105000000
