215
-1427.28999
C     4.152000000    -1.872000000    -2.528000000
H     3.751000000    -2.834000000    -2.217000000
C     4.608000000    -1.015000000    -1.581000000
C     5.324000000     0.165000000    -1.960000000
H     5.488000000     0.935000000    -1.211000000
C     4.169000000    -1.234000000    -0.135000000
O     4.468000000    -2.537000000     0.241000000
H     3.113000000    -0.931000000    -0.067000000
O     4.904000000    -0.304000000     0.721000000
C     4.260000000     0.304000000     1.815000000
C     3.995000000     1.643000000     1.696000000
H     4.278000000     2.186000000     0.798000000
C     3.253000000     2.217000000     2.714000000
O     2.816000000     3.450000000     2.412000000
C     2.847000000     1.531000000     3.817000000
C     1.987000000     2.304000000     4.821000000
H     2.027000000     1.987000000     5.865000000
C     0.491000000     2.073000000     4.449000000
C    -0.114000000     0.874000000     4.858000000
H     0.441000000     0.076000000     5.345000000
H     2.289000000     3.353000000     4.856000000
C     3.169000000     0.178000000     3.928000000
H     3.008000000    -0.298000000     4.891000000
C     3.765000000    -0.509000000     2.880000000
C     4.181000000    -1.981000000     2.989000000
H     4.027000000    -2.153000000     4.056000000
H     5.179000000    -2.325000000     2.709000000
C     3.202000000    -2.851000000     2.174000000
C     2.109000000    -3.404000000     2.816000000
H     2.101000000    -3.234000000     3.890000000
C     3.422000000    -3.142000000     0.870000000
C     2.429000000    -3.831000000     0.123000000
H     2.570000000    -3.980000000    -0.944000000
C     1.251000000    -4.286000000     0.750000000
O     0.272000000    -4.968000000     0.076000000
C    -1.042000000    -4.283000000    -0.028000000
C    -1.575000000    -4.282000000    -1.441000000
C    -2.924000000    -4.040000000    -1.731000000
H    -3.668000000    -3.787000000    -0.980000000
C    -0.708000000    -4.445000000    -2.576000000
H     0.360000000    -4.504000000    -2.378000000
O    -2.053000000    -4.623000000     0.947000000
H    -0.823000000    -3.214000000     0.110000000
C     1.181000000    -4.201000000     2.120000000
C    -0.028000000    -4.754000000     2.983000000
H     0.236000000    -5.011000000     4.011000000
H    -0.452000000    -5.681000000     2.591000000
C    -1.198000000    -3.719000000     2.926000000
C    -1.197000000    -2.685000000     3.891000000
H    -0.468000000    -2.737000000     4.696000000
C    -2.139000000    -3.706000000     1.973000000
C    -3.154000000    -2.723000000     1.984000000
H    -3.906000000    -2.639000000     1.204000000
C    -3.172000000    -1.733000000     2.957000000
O    -4.063000000    -0.724000000     2.775000000
C    -3.669000000     0.507000000     2.204000000
C    -4.655000000     1.189000000     1.229000000
C    -5.331000000     0.323000000     0.297000000
H    -5.351000000    -0.762000000     0.352000000
C    -4.788000000     2.579000000     1.179000000
H    -4.270000000     3.210000000     1.896000000
O    -3.447000000     1.386000000     3.386000000
H    -2.731000000     0.427000000     1.634000000
C    -2.131000000    -1.695000000     3.905000000
C    -2.143000000    -0.690000000     4.990000000
H    -1.546000000    -1.106000000     5.804000000
H    -3.100000000    -0.579000000     5.505000000
C    -1.439000000     0.589000000     4.523000000
C    -2.108000000     1.604000000     3.836000000
C    -1.478000000     2.640000000     3.285000000
H    -1.967000000     3.149000000     2.458000000
C    -0.123000000     2.839000000     3.499000000
O     0.517000000     3.949000000     2.947000000
C     1.501000000     3.620000000     1.926000000
H     1.258000000     2.621000000     1.535000000
C     1.319000000     4.455000000     0.587000000
C     2.356000000     4.587000000    -0.390000000
H     3.341000000     4.214000000    -0.122000000
C     0.025000000     4.877000000     0.279000000
H    -0.719000000     4.795000000     1.068000000
C    -0.278000000     5.445000000    -0.967000000
O    -1.528000000     5.830000000    -1.342000000
C     0.758000000     5.471000000    -1.920000000
H     0.483000000     5.878000000    -2.890000000
C     2.032000000     4.958000000    -1.607000000
O     2.898000000     4.952000000    -2.660000000
C     4.238000000     4.584000000    -2.617000000
C     4.569000000     3.242000000    -2.918000000
H     3.760000000     2.517000000    -2.944000000
C     5.220000000     5.522000000    -2.634000000
H     5.036000000     6.540000000    -2.302000000
C     6.608000000     5.195000000    -2.994000000
H     7.331000000     6.003000000    -3.071000000
C     6.863000000     3.885000000    -3.380000000
H     7.864000000     3.590000000    -3.685000000
C     5.869000000     2.926000000    -3.297000000
O     6.127000000     1.640000000    -3.737000000
C     5.466000000     0.469000000    -3.342000000
C     4.935000000    -0.387000000    -4.320000000
H     5.132000000    -0.230000000    -5.377000000
C     4.293000000    -1.599000000    -3.926000000
O     4.094000000    -2.532000000    -4.865000000
C     3.299000000    -3.622000000    -4.753000000
C     1.910000000    -3.428000000    -4.849000000
H     1.481000000    -2.445000000    -5.023000000
C     3.823000000    -4.878000000    -4.431000000
H     4.904000000    -4.988000000    -4.456000000
C     2.932000000    -5.963000000    -4.241000000
H     3.346000000    -6.948000000    -4.040000000
C     1.560000000    -5.819000000    -4.493000000
H     0.780000000    -6.547000000    -4.284000000
C     1.093000000    -4.498000000    -4.738000000
O    -0.191000000    -4.198000000    -4.815000000
C    -1.124000000    -4.388000000    -3.836000000
C    -2.488000000    -4.273000000    -4.113000000
H    -2.900000000    -4.262000000    -5.119000000
C    -3.377000000    -4.106000000    -3.048000000
O    -4.639000000    -3.733000000    -3.387000000
C    -5.580000000    -3.149000000    -2.569000000
C    -5.547000000    -1.779000000    -2.404000000
H    -4.753000000    -1.138000000    -2.780000000
C    -6.467000000    -4.017000000    -1.922000000
H    -6.495000000    -5.092000000    -2.077000000
C    -7.428000000    -3.420000000    -1.095000000
H    -8.134000000    -3.984000000    -0.490000000
C    -7.624000000    -2.032000000    -1.098000000
H    -8.438000000    -1.575000000    -0.541000000
C    -6.670000000    -1.231000000    -1.736000000
O    -6.766000000     0.183000000    -1.566000000
C    -6.084000000     0.970000000    -0.641000000
C    -6.236000000     2.350000000    -0.740000000
H    -6.824000000     2.812000000    -1.528000000
C    -5.561000000     3.152000000     0.197000000
O    -5.781000000     4.545000000     0.244000000
C    -4.693000000     5.434000000     0.349000000
C    -4.613000000     6.301000000     1.406000000
H    -5.431000000     6.383000000     2.117000000
C    -3.471000000     6.983000000     1.692000000
H    -3.431000000     7.557000000     2.615000000
C    -2.422000000     6.879000000     0.737000000
H    -1.455000000     7.294000000     1.010000000
C    -2.568000000     6.054000000    -0.413000000
C    -3.698000000     5.285000000    -0.586000000
H    -3.729000000     4.666000000    -1.479000000
C    -1.293000000    -0.501000000    -0.580000000
H    -2.260000000    -0.993000000    -0.649000000
C    -0.451000000    -0.660000000     0.527000000
H    -0.813000000    -1.285000000     1.340000000
C     0.800000000    -0.078000000     0.708000000
H     1.346000000    -0.213000000     1.682000000
C     1.414000000     0.573000000    -0.341000000
H     2.420000000     0.976000000    -0.254000000
C     0.656000000     0.662000000    -1.541000000
H     1.112000000     1.080000000    -2.435000000
C    -0.684000000     0.196000000    -1.632000000
C    -1.492000000     0.386000000    -2.935000000
O    -1.180000000     1.167000000    -3.782000000
O    -2.635000000    -0.066000000    -2.986000000
O    -2.291000000     2.462000000    -9.683000000
H    -1.965000000     1.674000000   -10.117000000
H    -2.129000000     2.308000000    -8.752000000
O    -5.032000000     1.570000000    -8.827000000
H    -4.272000000     1.626000000    -8.247000000
H    -5.754000000     1.318000000    -8.251000000
O    -2.775000000     5.804000000    -7.578000000
H    -3.462000000     5.917000000    -6.921000000
H    -1.958000000     5.856000000    -7.082000000
O     2.699000000     4.176000000    -5.255000000
H     2.959000000     4.725000000    -4.516000000
H     3.476000000     4.143000000    -5.813000000
O    -2.746000000     1.144000000    -7.228000000
H    -2.358000000     1.783000000    -6.630000000
H    -2.268000000     0.333000000    -7.056000000
O     0.701000000    -0.391000000    -6.623000000
H     1.565000000    -0.667000000    -6.929000000
H     0.838000000     0.491000000    -6.278000000
O    -4.338000000     1.707000000    -4.058000000
H    -3.614000000     1.190000000    -3.705000000
H    -3.943000000     2.226000000    -4.758000000
O    -7.079000000     0.696000000    -4.420000000
H    -6.245000000     0.644000000    -4.885000000
H    -6.854000000     1.061000000    -3.564000000
O    -4.249000000     7.126000000    -3.682000000
H    -3.372000000     7.109000000    -4.065000000
H    -4.636000000     6.288000000    -3.933000000
O    -2.306000000     3.122000000    -5.411000000
H    -2.021000000     2.448000000    -4.794000000
H    -1.499000000     3.562000000    -5.675000000
O    -4.714000000    -1.409000000    -5.548000000
H    -3.778000000    -1.213000000    -5.597000000
H    -4.882000000    -1.542000000    -4.615000000
O    -0.085000000    -4.720000000    -7.747000000
H    -0.001000000    -4.380000000    -6.856000000
H     0.499000000    -4.170000000    -8.269000000
O    -1.902000000    -1.093000000    -5.439000000
H    -0.952000000    -0.992000000    -5.381000000
H    -2.242000000    -0.597000000    -4.695000000
O    -4.475000000     4.801000000    -4.838000000
H    -3.720000000     4.282000000    -4.562000000
H    -4.789000000     4.365000000    -5.630000000
O    -4.462000000    -3.393000000    -7.582000000
H    -4.312000000    -4.191000000    -7.076000000
H    -4.573000000    -2.709000000    -6.922000000
O     0.964000000     1.979000000    -5.121000000
H     1.329000000     2.843000000    -4.931000000
H     0.249000000     1.878000000    -4.492000000
O    -2.413000000    -3.119000000    -9.359000000
H    -3.223000000    -3.376000000    -8.917000000
H    -1.854000000    -2.786000000    -8.657000000
O     3.197000000     1.100000000    -6.688000000
H     2.692000000     1.501000000    -5.981000000
H     4.090000000     1.418000000    -6.555000000
O     0.276000000     3.928000000    -7.499000000
H     0.096000000     4.672000000    -8.074000000
H     1.090000000     4.161000000    -7.052000000
