215
-1434.82447
C    -2.537000000     1.755000000     4.156000000
H    -1.732000000     1.665000000     4.881000000
C    -2.961000000     0.609000000     3.477000000
C    -4.115000000     0.659000000     2.703000000
H    -4.499000000    -0.209000000     2.174000000
C    -2.203000000    -0.708000000     3.512000000
O    -1.356000000    -0.876000000     4.718000000
H    -1.618000000    -0.632000000     2.583000000
O    -3.005000000    -1.941000000     3.422000000
C    -2.565000000    -2.943000000     2.533000000
C    -3.220000000    -2.921000000     1.295000000
H    -4.130000000    -2.328000000     1.253000000
C    -2.792000000    -3.803000000     0.309000000
O    -3.339000000    -3.638000000    -0.849000000
C    -1.738000000    -4.650000000     0.520000000
C    -1.015000000    -5.481000000    -0.584000000
H    -0.458000000    -6.298000000    -0.120000000
C    -0.084000000    -4.625000000    -1.405000000
C     1.281000000    -4.658000000    -1.104000000
H     1.547000000    -5.271000000    -0.247000000
H    -1.767000000    -5.884000000    -1.266000000
C    -1.090000000    -4.646000000     1.755000000
H    -0.151000000    -5.193000000     1.776000000
C    -1.423000000    -3.714000000     2.728000000
C    -0.691000000    -3.609000000     4.056000000
H    -0.258000000    -4.596000000     4.232000000
H    -1.270000000    -3.542000000     4.979000000
C     0.320000000    -2.550000000     4.036000000
C     1.652000000    -2.905000000     3.739000000
H     1.957000000    -3.913000000     3.470000000
C    -0.052000000    -1.258000000     4.454000000
C     0.917000000    -0.234000000     4.345000000
H     0.615000000     0.802000000     4.477000000
C     2.250000000    -0.552000000     3.939000000
O     3.112000000     0.578000000     3.864000000
C     3.434000000     1.072000000     2.567000000
C     3.484000000     2.592000000     2.569000000
C     4.254000000     3.265000000     1.616000000
H     4.815000000     2.695000000     0.878000000
C     2.696000000     3.278000000     3.479000000
H     2.193000000     2.802000000     4.317000000
O     4.668000000     0.476000000     2.078000000
H     2.569000000     0.854000000     1.924000000
C     2.635000000    -1.882000000     3.664000000
C     4.065000000    -2.177000000     3.176000000
H     4.438000000    -3.149000000     3.504000000
H     4.722000000    -1.457000000     3.669000000
C     4.191000000    -1.887000000     1.717000000
C     4.006000000    -2.899000000     0.857000000
H     3.709000000    -3.891000000     1.187000000
C     4.505000000    -0.579000000     1.232000000
C     4.576000000    -0.296000000    -0.110000000
H     4.713000000     0.736000000    -0.422000000
C     4.300000000    -1.393000000    -1.028000000
O     4.131000000    -1.084000000    -2.391000000
C     2.873000000    -0.954000000    -2.843000000
C     2.681000000     0.282000000    -3.700000000
C     3.446000000     1.406000000    -3.610000000
H     4.421000000     1.377000000    -3.131000000
C     1.522000000     0.400000000    -4.443000000
H     0.763000000    -0.378000000    -4.475000000
O     2.617000000    -2.165000000    -3.534000000
H     2.186000000    -0.933000000    -1.984000000
C     4.049000000    -2.690000000    -0.551000000
C     3.686000000    -3.832000000    -1.494000000
H     4.005000000    -4.678000000    -0.881000000
H     4.357000000    -3.867000000    -2.354000000
C     2.178000000    -3.922000000    -1.855000000
C     1.743000000    -3.044000000    -2.889000000
C     0.367000000    -3.022000000    -3.197000000
H     0.088000000    -2.379000000    -4.028000000
C    -0.540000000    -3.864000000    -2.480000000
O    -1.854000000    -3.851000000    -2.782000000
C    -2.568000000    -2.942000000    -1.870000000
H    -1.863000000    -2.275000000    -1.353000000
C    -3.528000000    -2.091000000    -2.721000000
C    -4.720000000    -1.702000000    -2.170000000
H    -5.050000000    -1.939000000    -1.162000000
C    -3.228000000    -1.825000000    -4.107000000
H    -2.373000000    -2.304000000    -4.577000000
C    -4.159000000    -1.119000000    -4.845000000
O    -3.895000000    -0.844000000    -6.153000000
C    -5.252000000    -0.683000000    -4.280000000
H    -5.900000000    -0.031000000    -4.860000000
C    -5.526000000    -0.841000000    -2.898000000
O    -6.699000000    -0.332000000    -2.319000000
C    -6.886000000    -0.247000000    -0.958000000
C    -6.430000000     0.882000000    -0.224000000
H    -5.888000000     1.702000000    -0.688000000
C    -7.668000000    -1.171000000    -0.402000000
H    -8.138000000    -1.879000000    -1.080000000
C    -7.881000000    -1.240000000     0.959000000
H    -8.464000000    -2.075000000     1.340000000
C    -7.348000000    -0.203000000     1.728000000
H    -7.545000000    -0.075000000     2.790000000
C    -6.619000000     0.854000000     1.167000000
O    -6.171000000     1.850000000     1.993000000
C    -4.907000000     1.784000000     2.695000000
C    -4.454000000     2.964000000     3.231000000
H    -5.166000000     3.784000000     3.254000000
C    -3.378000000     2.918000000     4.079000000
O    -3.029000000     4.020000000     4.784000000
C    -1.778000000     4.277000000     5.156000000
C    -0.848000000     4.549000000     4.175000000
H    -1.129000000     4.560000000     3.125000000
C    -1.415000000     4.311000000     6.492000000
H    -2.190000000     4.246000000     7.252000000
C    -0.061000000     4.423000000     6.851000000
H     0.355000000     4.514000000     7.852000000
C     0.834000000     4.744000000     5.895000000
H     1.882000000     4.955000000     6.094000000
C     0.420000000     4.896000000     4.588000000
O     1.353000000     5.366000000     3.659000000
C     2.426000000     4.641000000     3.117000000
C     3.156000000     5.325000000     2.166000000
H     2.964000000     6.340000000     1.827000000
C     4.136000000     4.688000000     1.435000000
O     4.780000000     5.338000000     0.418000000
C     5.170000000     4.679000000    -0.733000000
C     4.295000000     4.374000000    -1.786000000
H     3.240000000     4.610000000    -1.668000000
C     6.538000000     4.421000000    -0.882000000
H     7.205000000     4.715000000    -0.076000000
C     7.052000000     3.946000000    -2.091000000
H     8.107000000     3.888000000    -2.345000000
C     6.168000000     3.692000000    -3.141000000
H     6.567000000     3.482000000    -4.131000000
C     4.846000000     3.940000000    -3.002000000
O     3.971000000     3.720000000    -4.057000000
C     3.092000000     2.649000000    -4.113000000
C     1.917000000     2.798000000    -4.762000000
H     1.671000000     3.738000000    -5.249000000
C     1.176000000     1.660000000    -4.983000000
O     0.013000000     1.814000000    -5.628000000
C    -0.642000000     0.781000000    -6.248000000
C    -0.018000000     0.107000000    -7.318000000
H     0.994000000     0.403000000    -7.580000000
C    -0.614000000    -1.034000000    -7.889000000
H    -0.030000000    -1.682000000    -8.537000000
C    -1.943000000    -1.304000000    -7.529000000
H    -2.359000000    -2.149000000    -8.072000000
C    -2.592000000    -0.489000000    -6.578000000
C    -1.913000000     0.497000000    -5.924000000
H    -2.407000000     1.207000000    -5.265000000
C     0.411000000     2.368000000    -1.184000000
H     1.004000000     3.170000000    -1.616000000
C     1.150000000     1.305000000    -0.715000000
H     2.237000000     1.325000000    -0.741000000
C     0.541000000     0.178000000    -0.181000000
H     1.167000000    -0.518000000     0.234000000
C    -0.822000000     0.088000000    -0.241000000
H    -1.308000000    -0.780000000     0.197000000
C    -1.590000000     1.154000000    -0.625000000
H    -2.671000000     1.049000000    -0.599000000
C    -0.956000000     2.323000000    -1.102000000
C    -1.731000000     3.485000000    -1.604000000
O    -2.906000000     3.482000000    -1.674000000
O    -1.174000000     4.525000000    -1.925000000
O    -2.235000000     4.402000000    -7.653000000
H    -2.465000000     5.098000000    -7.038000000
H    -1.320000000     4.203000000    -7.458000000
O    -4.225000000     7.047000000     2.319000000
H    -3.418000000     7.556000000     2.387000000
H    -4.066000000     6.441000000     1.595000000
O    -0.665000000     6.355000000     0.327000000
H    -0.591000000     5.573000000    -0.221000000
H    -1.337000000     6.885000000    -0.102000000
O    -3.146000000     8.368000000    -5.996000000
H    -3.951000000     8.744000000    -5.639000000
H    -3.109000000     7.486000000    -5.626000000
O    -7.206000000     5.053000000    -5.262000000
H    -6.482000000     4.458000000    -5.456000000
H    -7.460000000     4.838000000    -4.365000000
O    -4.410000000     2.308000000    -3.651000000
H    -4.723000000     1.544000000    -3.167000000
H    -3.856000000     2.777000000    -3.027000000
O    -1.617000000     7.711000000     2.491000000
H    -1.146000000     7.105000000     1.920000000
H    -1.174000000     7.639000000     3.336000000
O    -3.511000000     9.715000000    -0.869000000
H    -2.683000000     9.250000000    -0.748000000
H    -3.270000000    10.642000000    -0.855000000
O    -4.884000000     3.487000000    -6.138000000
H    -4.784000000     3.017000000    -5.311000000
H    -4.072000000     3.985000000    -6.231000000
O    -6.784000000     4.817000000    -0.326000000
H    -7.408000000     4.264000000     0.143000000
H    -6.488000000     4.277000000    -1.059000000
O     0.344000000     5.460000000    -6.992000000
H     0.448000000     5.530000000    -6.043000000
H     0.238000000     6.364000000    -7.288000000
O    -0.337000000     5.601000000    -4.248000000
H     0.401000000     6.120000000    -3.928000000
H    -0.616000000     5.089000000    -3.489000000
O    -4.824000000     5.048000000    -3.355000000
H    -4.085000000     4.610000000    -2.933000000
H    -5.360000000     5.366000000    -2.628000000
O    -0.336000000     8.570000000    -1.665000000
H    -1.110000000     8.088000000    -1.954000000
H     0.170000000     8.713000000    -2.465000000
O    -2.649000000     6.747000000    -1.974000000
H    -3.421000000     6.373000000    -1.549000000
H    -2.037000000     6.014000000    -2.047000000
O    -2.815000000     5.740000000    -5.333000000
H    -2.195000000     5.782000000    -4.604000000
H    -3.669000000     5.633000000    -4.914000000
O    -4.128000000     5.527000000     0.059000000
H    -3.592000000     4.737000000    -0.005000000
H    -5.006000000     5.205000000     0.266000000
O    -4.754000000     8.134000000    -3.108000000
H    -4.790000000     8.252000000    -4.057000000
H    -3.970000000     7.605000000    -2.962000000
O    -7.772000000     3.191000000    -2.364000000
H    -7.930000000     2.796000000    -3.221000000
H    -8.430000000     2.794000000    -1.793000000
