215
-1451.79509
C    -2.878000000     1.665000000     4.291000000
H    -1.907000000     1.914000000     4.712000000
C    -3.210000000     0.306000000     3.959000000
C    -4.500000000     0.040000000     3.441000000
H    -4.757000000    -0.974000000     3.145000000
C    -2.122000000    -0.794000000     3.944000000
O    -1.128000000    -0.620000000     4.988000000
H    -1.630000000    -0.687000000     2.966000000
O    -2.665000000    -2.133000000     3.867000000
C    -2.069000000    -3.021000000     2.970000000
C    -2.721000000    -3.109000000     1.761000000
H    -3.577000000    -2.474000000     1.547000000
C    -2.147000000    -3.838000000     0.731000000
O    -2.915000000    -3.765000000    -0.471000000
C    -0.983000000    -4.520000000     0.958000000
C    -0.409000000    -5.453000000    -0.090000000
H     0.141000000    -6.287000000     0.350000000
C     0.455000000    -4.653000000    -1.088000000
C     1.825000000    -4.582000000    -0.798000000
H     2.230000000    -5.155000000     0.033000000
H    -1.281000000    -5.913000000    -0.559000000
C    -0.303000000    -4.467000000     2.247000000
H     0.630000000    -4.992000000     2.436000000
C    -0.914000000    -3.746000000     3.291000000
C    -0.178000000    -3.476000000     4.630000000
H     0.440000000    -4.299000000     4.994000000
H    -0.914000000    -3.280000000     5.412000000
C     0.650000000    -2.223000000     4.438000000
C     2.026000000    -2.370000000     4.067000000
H     2.475000000    -3.359000000     4.015000000
C     0.145000000    -0.922000000     4.546000000
C     0.950000000     0.185000000     4.258000000
H     0.544000000     1.178000000     4.431000000
C     2.253000000     0.050000000     3.894000000
O     2.963000000     1.255000000     3.669000000
C     3.212000000     1.634000000     2.341000000
C     3.006000000     3.134000000     2.134000000
C     3.844000000     3.826000000     1.240000000
H     4.765000000     3.356000000     0.905000000
C     1.874000000     3.766000000     2.610000000
H     1.141000000     3.278000000     3.246000000
O     4.480000000     1.091000000     1.913000000
H     2.410000000     1.192000000     1.731000000
C     2.794000000    -1.224000000     3.683000000
C     4.227000000    -1.342000000     3.371000000
H     4.567000000    -2.336000000     3.669000000
H     4.816000000    -0.639000000     3.964000000
C     4.365000000    -1.249000000     1.881000000
C     4.259000000    -2.341000000     1.050000000
H     4.115000000    -3.287000000     1.565000000
C     4.561000000    -0.032000000     1.214000000
C     4.710000000     0.047000000    -0.175000000
H     4.607000000     1.021000000    -0.646000000
C     4.513000000    -1.054000000    -0.981000000
O     4.289000000    -0.850000000    -2.306000000
C     3.006000000    -0.986000000    -2.845000000
C     2.861000000     0.058000000    -4.001000000
C     3.188000000     1.325000000    -3.716000000
H     3.667000000     1.527000000    -2.761000000
C     1.994000000    -0.262000000    -5.044000000
H     1.544000000    -1.249000000    -5.116000000
O     2.762000000    -2.220000000    -3.422000000
H     2.256000000    -0.703000000    -2.092000000
C     4.367000000    -2.291000000    -0.350000000
C     4.113000000    -3.579000000    -1.210000000
H     4.555000000    -4.425000000    -0.680000000
H     4.735000000    -3.523000000    -2.106000000
C     2.657000000    -3.749000000    -1.597000000
C     2.023000000    -3.105000000    -2.684000000
C     0.658000000    -3.181000000    -2.898000000
H     0.213000000    -2.681000000    -3.755000000
C    -0.116000000    -3.995000000    -2.158000000
O    -1.464000000    -4.024000000    -2.354000000
C    -2.313000000    -3.123000000    -1.570000000
H    -1.658000000    -2.356000000    -1.131000000
C    -3.321000000    -2.384000000    -2.407000000
C    -4.209000000    -1.544000000    -1.770000000
H    -4.267000000    -1.687000000    -0.694000000
C    -3.020000000    -2.073000000    -3.727000000
H    -2.190000000    -2.587000000    -4.207000000
C    -3.748000000    -1.138000000    -4.387000000
O    -3.479000000    -0.882000000    -5.711000000
C    -4.724000000    -0.352000000    -3.755000000
H    -5.318000000     0.338000000    -4.349000000
C    -4.917000000    -0.549000000    -2.421000000
O    -5.752000000     0.226000000    -1.708000000
C    -6.447000000    -0.064000000    -0.604000000
C    -6.142000000     0.536000000     0.645000000
H    -5.282000000     1.200000000     0.672000000
C    -7.536000000    -0.994000000    -0.681000000
H    -7.745000000    -1.414000000    -1.661000000
C    -8.275000000    -1.345000000     0.464000000
H    -9.068000000    -2.088000000     0.434000000
C    -7.985000000    -0.649000000     1.640000000
H    -8.635000000    -0.804000000     2.498000000
C    -6.929000000     0.226000000     1.745000000
O    -6.744000000     0.826000000     2.947000000
C    -5.435000000     1.051000000     3.344000000
C    -5.127000000     2.389000000     3.796000000
H    -5.834000000     3.201000000     3.649000000
C    -3.836000000     2.684000000     4.215000000
O    -3.567000000     3.983000000     4.691000000
C    -2.236000000     4.354000000     4.844000000
C    -1.575000000     4.880000000     3.745000000
H    -2.094000000     4.785000000     2.794000000
C    -1.596000000     4.239000000     6.072000000
H    -2.081000000     3.768000000     6.924000000
C    -0.335000000     4.838000000     6.219000000
H     0.183000000     4.727000000     7.167000000
C     0.310000000     5.451000000     5.116000000
H     1.368000000     5.655000000     5.259000000
C    -0.326000000     5.468000000     3.868000000
O     0.465000000     5.792000000     2.743000000
C     1.647000000     5.108000000     2.309000000
C     2.524000000     5.829000000     1.430000000
H     2.411000000     6.896000000     1.255000000
C     3.560000000     5.122000000     0.883000000
O     4.292000000     5.728000000    -0.144000000
C     4.616000000     5.155000000    -1.307000000
C     3.682000000     4.890000000    -2.302000000
H     2.659000000     5.239000000    -2.188000000
C     5.936000000     4.754000000    -1.546000000
H     6.561000000     5.174000000    -0.763000000
C     6.310000000     4.008000000    -2.628000000
H     7.349000000     3.738000000    -2.796000000
C     5.328000000     3.674000000    -3.548000000
H     5.515000000     2.869000000    -4.255000000
C     3.990000000     4.121000000    -3.358000000
O     3.061000000     3.697000000    -4.217000000
C     2.799000000     2.370000000    -4.522000000
C     2.012000000     2.050000000    -5.630000000
H     1.567000000     2.884000000    -6.167000000
C     1.645000000     0.739000000    -5.917000000
O     0.883000000     0.574000000    -6.999000000
C    -0.158000000    -0.369000000    -7.147000000
C     0.078000000    -1.524000000    -7.893000000
H     0.966000000    -1.708000000    -8.493000000
C    -0.917000000    -2.565000000    -7.871000000
H    -0.715000000    -3.506000000    -8.376000000
C    -2.108000000    -2.336000000    -7.220000000
H    -2.943000000    -3.025000000    -7.126000000
C    -2.357000000    -1.196000000    -6.447000000
C    -1.362000000    -0.152000000    -6.425000000
H    -1.514000000     0.794000000    -5.913000000
C     0.367000000     2.599000000    -0.738000000
H     0.698000000     3.502000000    -1.244000000
C     1.115000000     1.414000000    -0.601000000
H     2.175000000     1.362000000    -0.833000000
C     0.561000000     0.312000000     0.048000000
H     1.135000000    -0.576000000     0.105000000
C    -0.797000000     0.302000000     0.393000000
H    -1.285000000    -0.613000000     0.718000000
C    -1.555000000     1.491000000     0.269000000
H    -2.614000000     1.468000000     0.516000000
C    -1.022000000     2.630000000    -0.330000000
C    -1.884000000     3.893000000    -0.566000000
O    -3.075000000     3.730000000    -0.699000000
O    -1.369000000     4.918000000    -0.948000000
O    -1.667000000     2.809000000    -3.913000000
H    -2.578000000     2.988000000    -3.682000000
H    -1.270000000     2.500000000    -3.098000000
O    -4.439000000     6.880000000     3.710000000
H    -3.976000000     6.045000000     3.647000000
H    -5.324000000     6.687000000     3.401000000
O     0.123000000     7.683000000    -0.769000000
H    -0.339000000     6.860000000    -0.607000000
H    -0.100000000     7.909000000    -1.672000000
O    -1.675000000     3.317000000    -6.620000000
H    -0.875000000     3.378000000    -7.141000000
H    -1.374000000     3.061000000    -5.748000000
O    -8.676000000     3.280000000     1.177000000
H    -8.902000000     2.534000000     0.622000000
H    -7.770000000     3.484000000     0.947000000
O    -6.696000000     5.864000000    -1.082000000
H    -6.515000000     5.065000000    -0.586000000
H    -5.856000000     6.096000000    -1.477000000
O    -6.826000000     2.981000000    -2.282000000
H    -7.320000000     2.950000000    -3.101000000
H    -7.357000000     2.480000000    -1.663000000
O    -4.217000000     3.167000000    -2.962000000
H    -3.803000000     3.499000000    -2.165000000
H    -5.115000000     2.967000000    -2.701000000
O    -3.630000000     9.139000000    -1.038000000
H    -4.322000000     9.660000000    -1.445000000
H    -3.773000000     8.252000000    -1.369000000
O    -6.571000000     6.944000000     1.834000000
H    -6.406000000     6.723000000     0.917000000
H    -7.498000000     7.181000000     1.861000000
O     0.813000000     9.818000000     0.984000000
H     1.767000000     9.782000000     1.051000000
H     0.589000000     9.114000000     0.375000000
O    -0.060000000     4.790000000    -3.286000000
H    -0.616000000     4.076000000    -3.598000000
H    -0.522000000     5.138000000    -2.524000000
O    -4.273000000     4.020000000    -5.628000000
H    -4.216000000     3.750000000    -4.711000000
H    -3.449000000     3.725000000    -6.015000000
O    -3.320000000     6.673000000    -4.664000000
H    -3.826000000     5.959000000    -5.050000000
H    -3.154000000     7.271000000    -5.393000000
O     1.268000000     5.987000000    -5.711000000
H     0.990000000     5.834000000    -4.808000000
H     1.001000000     6.887000000    -5.894000000
O    -3.795000000     6.512000000    -1.729000000
H    -3.640000000     6.433000000    -2.671000000
H    -2.984000000     6.201000000    -1.326000000
O    -5.584000000     3.602000000     0.121000000
H    -4.668000000     3.869000000     0.046000000
H    -5.696000000     2.935000000    -0.557000000
O    -0.564000000     7.933000000    -3.460000000
H    -1.026000000     8.360000000    -4.181000000
H    -0.707000000     6.997000000    -3.603000000
O    -4.709000000     9.296000000     1.421000000
H    -4.607000000     8.416000000     1.782000000
H    -4.093000000     9.328000000     0.689000000
