215
-1451.42783
C    -1.847000000     1.877000000     4.642000000
H    -1.044000000     1.777000000     5.369000000
C    -2.357000000     0.843000000     3.891000000
C    -3.469000000     1.041000000     3.101000000
H    -3.921000000     0.156000000     2.660000000
C    -1.570000000    -0.457000000     3.906000000
O    -0.514000000    -0.525000000     4.892000000
H    -1.070000000    -0.401000000     2.928000000
O    -2.410000000    -1.686000000     3.969000000
C    -2.297000000    -2.702000000     3.053000000
C    -3.115000000    -2.690000000     1.915000000
H    -3.916000000    -1.966000000     1.793000000
C    -2.733000000    -3.568000000     0.891000000
O    -3.592000000    -3.634000000    -0.271000000
C    -1.705000000    -4.525000000     0.959000000
C    -1.384000000    -5.454000000    -0.195000000
H    -0.862000000    -6.349000000     0.150000000
C    -0.490000000    -4.762000000    -1.218000000
C     0.893000000    -4.828000000    -1.085000000
H     1.383000000    -5.213000000    -0.195000000
H    -2.259000000    -5.882000000    -0.690000000
C    -0.815000000    -4.328000000     1.997000000
H     0.111000000    -4.888000000     2.091000000
C    -1.114000000    -3.463000000     3.069000000
C    -0.176000000    -3.369000000     4.299000000
H     0.223000000    -4.378000000     4.416000000
H    -0.781000000    -3.175000000     5.187000000
C     0.943000000    -2.323000000     4.068000000
C     2.203000000    -2.696000000     3.506000000
H     2.351000000    -3.740000000     3.241000000
C     0.734000000    -0.985000000     4.463000000
C     1.735000000    -0.041000000     4.305000000
H     1.496000000     1.013000000     4.425000000
C     3.005000000    -0.401000000     3.767000000
O     3.885000000     0.637000000     3.418000000
C     3.778000000     0.947000000     2.036000000
C     3.721000000     2.551000000     1.803000000
C     4.414000000     3.173000000     0.782000000
H     5.043000000     2.603000000     0.103000000
C     2.875000000     3.252000000     2.599000000
H     2.437000000     2.819000000     3.495000000
O     4.874000000     0.309000000     1.332000000
H     2.806000000     0.551000000     1.705000000
C     3.233000000    -1.746000000     3.366000000
C     4.518000000    -2.130000000     2.665000000
H     4.853000000    -3.155000000     2.843000000
H     5.346000000    -1.553000000     3.081000000
C     4.360000000    -2.038000000     1.122000000
C     3.923000000    -3.119000000     0.295000000
H     3.620000000    -4.039000000     0.787000000
C     4.746000000    -0.832000000     0.498000000
C     4.592000000    -0.774000000    -0.864000000
H     4.801000000     0.201000000    -1.296000000
C     4.128000000    -1.772000000    -1.622000000
O     3.840000000    -1.423000000    -2.911000000
C     2.430000000    -1.252000000    -3.177000000
C     2.169000000    -0.010000000    -3.991000000
C     2.976000000     1.103000000    -3.941000000
H     4.019000000     1.011000000    -3.650000000
C     0.966000000     0.021000000    -4.722000000
H     0.301000000    -0.829000000    -4.593000000
O     1.822000000    -2.429000000    -3.779000000
H     1.920000000    -1.129000000    -2.210000000
C     3.781000000    -2.980000000    -1.050000000
C     3.191000000    -4.133000000    -1.970000000
H     3.601000000    -5.084000000    -1.624000000
H     3.615000000    -4.107000000    -2.976000000
C     1.656000000    -4.180000000    -2.067000000
C     1.088000000    -3.271000000    -2.988000000
C    -0.297000000    -3.336000000    -3.115000000
H    -0.729000000    -2.721000000    -3.900000000
C    -1.047000000    -4.019000000    -2.240000000
O    -2.407000000    -3.950000000    -2.362000000
C    -3.053000000    -2.967000000    -1.500000000
H    -2.236000000    -2.330000000    -1.130000000
C    -4.060000000    -2.037000000    -2.135000000
C    -5.017000000    -1.398000000    -1.387000000
H    -5.152000000    -1.485000000    -0.312000000
C    -3.966000000    -1.742000000    -3.517000000
H    -3.133000000    -2.269000000    -3.974000000
C    -4.920000000    -0.934000000    -4.182000000
O    -4.853000000    -0.685000000    -5.546000000
C    -5.925000000    -0.342000000    -3.416000000
H    -6.708000000     0.319000000    -3.779000000
C    -6.024000000    -0.594000000    -2.019000000
O    -7.002000000     0.121000000    -1.368000000
C    -6.978000000     0.233000000    -0.008000000
C    -6.106000000     1.185000000     0.556000000
H    -5.537000000     1.837000000    -0.101000000
C    -7.854000000    -0.450000000     0.832000000
H    -8.440000000    -1.194000000     0.297000000
C    -7.881000000    -0.263000000     2.215000000
H    -8.456000000    -0.886000000     2.895000000
C    -7.046000000     0.645000000     2.758000000
H    -6.882000000     0.854000000     3.812000000
C    -6.146000000     1.350000000     1.922000000
O    -5.423000000     2.375000000     2.561000000
C    -4.164000000     2.262000000     3.178000000
C    -3.715000000     3.294000000     3.933000000
H    -4.236000000     4.244000000     4.015000000
C    -2.557000000     3.115000000     4.703000000
O    -2.075000000     4.204000000     5.441000000
C    -0.740000000     4.438000000     5.499000000
C    -0.035000000     5.026000000     4.442000000
H    -0.472000000     5.249000000     3.472000000
C    -0.029000000     4.075000000     6.605000000
H    -0.583000000     3.626000000     7.426000000
C     1.351000000     4.320000000     6.734000000
H     1.794000000     4.083000000     7.698000000
C     2.055000000     4.702000000     5.605000000
H     3.129000000     4.550000000     5.672000000
C     1.361000000     5.034000000     4.463000000
O     2.016000000     5.447000000     3.349000000
C     2.743000000     4.607000000     2.414000000
C     3.279000000     5.220000000     1.307000000
H     3.111000000     6.275000000     1.105000000
C     4.090000000     4.478000000     0.443000000
O     4.780000000     5.160000000    -0.552000000
C     5.097000000     4.633000000    -1.790000000
C     4.041000000     4.326000000    -2.657000000
H     2.992000000     4.459000000    -2.402000000
C     6.427000000     4.444000000    -2.182000000
H     7.241000000     4.712000000    -1.513000000
C     6.737000000     4.012000000    -3.482000000
H     7.782000000     3.950000000    -3.772000000
C     5.633000000     3.622000000    -4.294000000
H     5.844000000     3.242000000    -5.290000000
C     4.318000000     3.758000000    -3.867000000
O     3.318000000     3.367000000    -4.770000000
C     2.504000000     2.272000000    -4.544000000
C     1.346000000     2.361000000    -5.318000000
H     1.057000000     3.214000000    -5.926000000
C     0.576000000     1.179000000    -5.359000000
O    -0.672000000     1.337000000    -5.984000000
C    -1.538000000     0.351000000    -6.446000000
C    -1.066000000    -0.787000000    -7.106000000
H    -0.018000000    -0.862000000    -7.384000000
C    -1.904000000    -1.869000000    -7.345000000
H    -1.552000000    -2.749000000    -7.878000000
C    -3.227000000    -1.809000000    -6.766000000
H    -3.943000000    -2.610000000    -6.929000000
C    -3.699000000    -0.642000000    -6.155000000
C    -2.871000000     0.492000000    -6.035000000
H    -3.214000000     1.333000000    -5.437000000
C    -0.269000000     2.637000000    -0.236000000
H     0.108000000     3.649000000    -0.358000000
C     0.745000000     1.680000000    -0.047000000
H     1.777000000     1.946000000    -0.263000000
C     0.381000000     0.354000000     0.295000000
H     1.121000000    -0.417000000     0.500000000
C    -0.966000000    -0.006000000     0.244000000
H    -1.226000000    -1.039000000     0.461000000
C    -1.978000000     0.953000000     0.033000000
H    -3.020000000     0.646000000     0.020000000
C    -1.600000000     2.308000000    -0.155000000
C    -2.632000000     3.398000000    -0.399000000
O    -3.692000000     3.080000000    -0.873000000
O    -2.428000000     4.566000000    -0.251000000
O    -4.120000000     6.644000000     3.581000000
H    -3.690000000     6.995000000     2.800000000
H    -5.044000000     6.585000000     3.340000000
O    -0.309000000     6.264000000     0.630000000
H    -0.957000000     5.702000000     0.205000000
H     0.114000000     6.730000000    -0.091000000
O    -3.492000000     6.581000000    -5.053000000
H    -2.739000000     7.076000000    -5.375000000
H    -3.110000000     5.885000000    -4.517000000
O    -6.739000000     6.298000000    -3.217000000
H    -7.090000000     5.873000000    -2.434000000
H    -6.191000000     5.629000000    -3.627000000
O    -4.851000000     2.586000000    -3.315000000
H    -5.465000000     2.041000000    -2.823000000
H    -4.231000000     2.901000000    -2.658000000
O    -4.733000000     9.609000000     0.001000000
H    -5.548000000     9.196000000    -0.284000000
H    -4.728000000    10.459000000    -0.440000000
O    -2.093000000     8.731000000    -0.384000000
H    -2.970000000     9.107000000    -0.309000000
H    -2.103000000     7.982000000     0.211000000
O    -6.810000000     5.979000000     1.880000000
H    -7.565000000     5.479000000     2.190000000
H    -6.441000000     5.445000000     1.178000000
O     0.532000000     8.194000000     2.200000000
H     1.342000000     8.223000000     1.691000000
H     0.080000000     7.411000000     1.887000000
O    -7.671000000     3.592000000    -1.612000000
H    -8.367000000     4.019000000    -1.114000000
H    -8.129000000     2.983000000    -2.191000000
O    -1.939000000     6.060000000    -2.427000000
H    -2.071000000     6.711000000    -1.738000000
H    -2.055000000     5.218000000    -1.986000000
O    -6.009000000     4.075000000    -5.304000000
H    -5.515000000     3.531000000    -4.690000000
H    -5.388000000     4.270000000    -6.005000000
O    -5.502000000     8.470000000    -4.081000000
H    -5.996000000     7.804000000    -3.603000000
H    -4.942000000     7.972000000    -4.676000000
O    -0.403000000     6.858000000    -4.899000000
H    -0.718000000     6.428000000    -4.104000000
H     0.213000000     7.521000000    -4.585000000
O    -3.343000000     6.708000000     1.035000000
H    -4.254000000     6.589000000     0.766000000
H    -2.906000000     5.899000000     0.767000000
O    -7.594000000     3.983000000     3.735000000
H    -7.219000000     4.040000000     4.614000000
H    -7.115000000     3.268000000     3.317000000
O    -5.571000000     4.883000000    -0.279000000
H    -4.694000000     4.500000000    -0.296000000
H    -6.055000000     4.406000000    -0.953000000
O    -1.016000000     9.966000000    -2.863000000
H    -1.347000000     9.189000000    -2.413000000
H    -0.200000000    10.177000000    -2.410000000
O    -2.695000000     7.464000000     5.791000000
H    -1.849000000     7.699000000     5.409000000
H    -3.163000000     7.021000000     5.083000000
