215
-1483.16470
C    -2.340000000     2.493000000     4.170000000
H    -1.348000000     2.580000000     4.607000000
C    -2.900000000     1.279000000     3.876000000
C    -4.217000000     1.202000000     3.328000000
H    -4.624000000     0.226000000     3.078000000
C    -1.985000000     0.087000000     3.815000000
O    -1.039000000     0.180000000     4.899000000
H    -1.409000000     0.103000000     2.879000000
O    -2.765000000    -1.173000000     3.987000000
C    -2.429000000    -2.291000000     3.239000000
C    -3.080000000    -2.497000000     2.047000000
H    -3.899000000    -1.809000000     1.853000000
C    -2.738000000    -3.528000000     1.198000000
O    -3.469000000    -3.557000000     0.045000000
C    -1.657000000    -4.370000000     1.441000000
C    -1.257000000    -5.489000000     0.498000000
H    -0.741000000    -6.288000000     1.036000000
C    -0.374000000    -4.930000000    -0.624000000
C     1.032000000    -5.062000000    -0.476000000
H     1.405000000    -5.585000000     0.401000000
H    -2.162000000    -5.941000000     0.086000000
C    -0.925000000    -4.087000000     2.621000000
H     0.055000000    -4.551000000     2.691000000
C    -1.318000000    -3.087000000     3.616000000
C    -0.581000000    -2.690000000     4.912000000
H    -0.248000000    -3.644000000     5.326000000
H    -1.275000000    -2.273000000     5.644000000
C     0.482000000    -1.667000000     4.589000000
C     1.750000000    -2.143000000     4.216000000
H     1.937000000    -3.206000000     4.089000000
C     0.194000000    -0.327000000     4.589000000
C     1.225000000     0.616000000     4.335000000
H     1.064000000     1.690000000     4.292000000
C     2.495000000     0.184000000     3.894000000
O     3.273000000     1.189000000     3.334000000
C     3.452000000     1.191000000     1.930000000
C     3.451000000     2.612000000     1.374000000
C     4.475000000     3.050000000     0.546000000
H     5.274000000     2.382000000     0.234000000
C     2.476000000     3.450000000     1.848000000
H     1.667000000     3.057000000     2.458000000
O     4.610000000     0.463000000     1.606000000
H     2.542000000     0.739000000     1.511000000
C     2.804000000    -1.201000000     3.878000000
C     4.036000000    -1.831000000     3.273000000
H     4.185000000    -2.837000000     3.671000000
H     4.972000000    -1.382000000     3.614000000
C     4.022000000    -1.866000000     1.763000000
C     3.685000000    -3.029000000     1.075000000
H     3.346000000    -3.900000000     1.630000000
C     4.361000000    -0.726000000     0.970000000
C     4.420000000    -0.804000000    -0.405000000
H     4.605000000     0.097000000    -0.985000000
C     4.136000000    -1.934000000    -1.090000000
O     3.999000000    -1.994000000    -2.461000000
C     2.654000000    -1.793000000    -2.912000000
C     2.500000000    -0.668000000    -3.860000000
C     3.446000000     0.331000000    -3.882000000
H     4.300000000     0.271000000    -3.213000000
C     1.329000000    -0.484000000    -4.576000000
H     0.598000000    -1.286000000    -4.505000000
O     2.097000000    -3.043000000    -3.358000000
H     2.115000000    -1.424000000    -2.028000000
C     3.766000000    -3.065000000    -0.344000000
C     3.359000000    -4.344000000    -1.103000000
H     3.596000000    -5.083000000    -0.335000000
H     4.039000000    -4.377000000    -1.957000000
C     1.842000000    -4.382000000    -1.386000000
C     1.335000000    -3.752000000    -2.533000000
C    -0.020000000    -3.633000000    -2.653000000
H    -0.538000000    -3.006000000    -3.375000000
C    -0.879000000    -4.277000000    -1.766000000
O    -2.256000000    -4.076000000    -1.840000000
C    -2.860000000    -3.022000000    -1.095000000
H    -2.081000000    -2.307000000    -0.791000000
C    -3.822000000    -2.181000000    -1.941000000
C    -4.782000000    -1.326000000    -1.353000000
H    -4.761000000    -1.171000000    -0.277000000
C    -3.650000000    -2.100000000    -3.310000000
H    -2.896000000    -2.728000000    -3.776000000
C    -4.491000000    -1.312000000    -4.136000000
O    -4.322000000    -1.187000000    -5.457000000
C    -5.448000000    -0.537000000    -3.481000000
H    -5.989000000     0.112000000    -4.164000000
C    -5.536000000    -0.468000000    -2.124000000
O    -6.369000000     0.461000000    -1.592000000
C    -6.777000000     0.391000000    -0.291000000
C    -6.269000000     1.287000000     0.612000000
H    -5.578000000     2.050000000     0.263000000
C    -7.751000000    -0.490000000     0.048000000
H    -8.141000000    -1.216000000    -0.661000000
C    -8.197000000    -0.470000000     1.363000000
H    -8.952000000    -1.181000000     1.689000000
C    -7.831000000     0.541000000     2.259000000
H    -8.324000000     0.668000000     3.219000000
C    -6.756000000     1.388000000     1.890000000
O    -6.256000000     2.325000000     2.734000000
C    -4.926000000     2.380000000     3.129000000
C    -4.378000000     3.617000000     3.508000000
H    -4.984000000     4.494000000     3.294000000
C    -3.075000000     3.690000000     4.063000000
O    -2.535000000     4.999000000     4.429000000
C    -1.167000000     5.241000000     4.360000000
C    -0.570000000     5.447000000     3.094000000
H    -1.166000000     5.447000000     2.185000000
C    -0.446000000     5.232000000     5.522000000
H    -1.031000000     5.218000000     6.438000000
C     0.923000000     5.243000000     5.475000000
H     1.546000000     5.096000000     6.354000000
C     1.595000000     5.379000000     4.286000000
H     2.676000000     5.480000000     4.250000000
C     0.865000000     5.577000000     3.102000000
O     1.563000000     5.658000000     1.927000000
C     2.482000000     4.787000000     1.453000000
C     3.479000000     5.287000000     0.644000000
H     3.511000000     6.326000000     0.328000000
C     4.415000000     4.387000000     0.101000000
O     5.404000000     4.824000000    -0.826000000
C     5.670000000     4.064000000    -1.929000000
C     4.641000000     3.674000000    -2.815000000
H     3.627000000     4.054000000    -2.713000000
C     7.022000000     3.783000000    -2.171000000
H     7.769000000     4.187000000    -1.494000000
C     7.424000000     2.928000000    -3.239000000
H     8.417000000     2.486000000    -3.255000000
C     6.402000000     2.477000000    -4.056000000
H     6.733000000     1.890000000    -4.910000000
C     5.067000000     2.919000000    -3.911000000
O     4.171000000     2.427000000    -4.838000000
C     3.233000000     1.453000000    -4.645000000
C     2.061000000     1.679000000    -5.378000000
H     2.014000000     2.574000000    -5.993000000
C     1.077000000     0.705000000    -5.230000000
O    -0.044000000     0.929000000    -5.975000000
C    -0.913000000    -0.109000000    -6.371000000
C    -0.528000000    -1.044000000    -7.373000000
H     0.436000000    -1.013000000    -7.874000000
C    -1.462000000    -2.048000000    -7.690000000
H    -1.367000000    -2.855000000    -8.412000000
C    -2.708000000    -2.047000000    -6.984000000
H    -3.378000000    -2.896000000    -7.090000000
C    -3.067000000    -1.076000000    -6.049000000
C    -2.130000000    -0.130000000    -5.706000000
H    -2.418000000     0.611000000    -4.964000000
C     0.201000000     2.179000000    -0.739000000
H     0.723000000     3.039000000    -1.151000000
C     0.880000000     0.928000000    -0.771000000
H     1.873000000     0.901000000    -1.211000000
C     0.350000000    -0.241000000    -0.253000000
H     0.941000000    -1.225000000    -0.193000000
C    -0.927000000    -0.114000000     0.371000000
H    -1.356000000    -0.956000000     0.908000000
C    -1.623000000     1.089000000     0.362000000
H    -2.603000000     1.194000000     0.819000000
C    -1.053000000     2.280000000    -0.190000000
C    -1.774000000     3.632000000    -0.025000000
O    -3.002000000     3.628000000    -0.114000000
O    -1.030000000     4.599000000    -0.106000000
O    -0.831000000     3.475000000    -4.554000000
H    -0.819000000     2.780000000    -5.211000000
H    -0.140000000     4.077000000    -4.830000000
O    -4.089000000     7.863000000     2.066000000
H    -3.489000000     7.453000000     1.442000000
H    -4.958000000     7.577000000     1.785000000
O    -0.344000000     7.864000000     0.295000000
H    -1.232000000     7.524000000     0.183000000
H     0.189000000     7.347000000    -0.309000000
O    -2.942000000     4.599000000    -5.725000000
H    -2.586000000     4.401000000    -6.592000000
H    -2.285000000     4.265000000    -5.115000000
O    -6.005000000     4.310000000    -2.805000000
H    -6.937000000     4.148000000    -2.662000000
H    -5.646000000     3.454000000    -3.038000000
O    -3.689000000     2.193000000    -2.165000000
H    -3.456000000     2.850000000    -1.509000000
H    -3.700000000     1.366000000    -1.682000000
O    -2.980000000     9.500000000    -0.694000000
H    -3.911000000     9.450000000    -0.910000000
H    -2.867000000     8.877000000     0.023000000
O    -6.519000000     6.755000000     1.461000000
H    -7.069000000     6.040000000     1.782000000
H    -6.425000000     6.582000000     0.524000000
O     1.311000000     9.351000000     1.422000000
H     1.988000000     8.716000000     1.189000000
H     0.498000000     8.965000000     1.097000000
O    -8.425000000     2.905000000    -1.890000000
H    -7.741000000     2.263000000    -1.701000000
H    -9.184000000     2.379000000    -2.142000000
O     0.687000000     5.361000000    -5.694000000
H     0.340000000     6.197000000    -6.006000000
H     1.245000000     5.595000000    -4.952000000
O    -0.838000000     5.677000000    -2.411000000
H    -0.872000000     4.885000000    -2.947000000
H    -0.836000000     5.355000000    -1.509000000
O    -4.679000000     2.278000000    -4.823000000
H    -4.138000000     2.166000000    -4.041000000
H    -4.168000000     2.858000000    -5.387000000
O    -5.055000000     6.347000000    -4.206000000
H    -5.702000000     5.850000000    -3.705000000
H    -4.271000000     5.798000000    -4.197000000
O     1.983000000     5.714000000    -3.285000000
H     1.773000000     5.383000000    -2.411000000
H     2.417000000     6.552000000    -3.125000000
O    -2.688000000     6.635000000     0.083000000
H    -3.506000000     6.431000000    -0.371000000
H    -2.130000000     5.874000000    -0.074000000
O    -5.126000000     5.697000000    -0.641000000
H    -4.980000000     4.845000000    -0.229000000
H    -5.560000000     5.491000000    -1.469000000
O    -0.956000000     8.521000000    -2.968000000
H    -0.655000000     7.627000000    -2.804000000
H    -1.911000000     8.461000000    -2.935000000
O    -2.668000000     8.082000000     4.560000000
H    -2.097000000     7.314000000     4.536000000
H    -3.170000000     8.034000000     3.747000000
