215
-1453.38096
C    -2.607000000     2.154000000     4.087000000
H    -1.711000000     2.368000000     4.664000000
C    -2.887000000     0.802000000     3.644000000
C    -4.148000000     0.554000000     3.010000000
H    -4.371000000    -0.494000000     2.826000000
C    -1.853000000    -0.272000000     3.893000000
O    -0.891000000    -0.014000000     4.954000000
H    -1.337000000    -0.272000000     2.922000000
O    -2.479000000    -1.513000000     4.041000000
C    -1.949000000    -2.575000000     3.303000000
C    -2.633000000    -3.053000000     2.211000000
H    -3.665000000    -2.750000000     2.055000000
C    -1.998000000    -3.998000000     1.380000000
O    -2.637000000    -4.328000000     0.161000000
C    -0.705000000    -4.364000000     1.621000000
C    -0.029000000    -5.457000000     0.704000000
H     0.631000000    -6.145000000     1.237000000
C     0.728000000    -4.749000000    -0.464000000
C     2.092000000    -4.495000000    -0.303000000
H     2.637000000    -4.730000000     0.608000000
H    -0.819000000    -6.032000000     0.216000000
C    -0.043000000    -3.907000000     2.758000000
H     0.984000000    -4.190000000     2.975000000
C    -0.706000000    -3.127000000     3.689000000
C     0.083000000    -2.698000000     4.863000000
H     0.749000000    -3.477000000     5.240000000
H    -0.721000000    -2.495000000     5.574000000
C     0.921000000    -1.475000000     4.635000000
C     2.233000000    -1.582000000     4.203000000
H     2.659000000    -2.573000000     4.066000000
C     0.370000000    -0.152000000     4.668000000
C     1.098000000     0.942000000     4.303000000
H     0.695000000     1.949000000     4.375000000
C     2.446000000     0.796000000     3.925000000
O     3.171000000     1.859000000     3.481000000
C     3.217000000     1.944000000     2.031000000
C     2.803000000     3.352000000     1.469000000
C     2.949000000     3.744000000     0.136000000
H     3.466000000     3.145000000    -0.609000000
C     2.013000000     4.152000000     2.335000000
H     1.800000000     3.787000000     3.336000000
O     4.528000000     1.504000000     1.519000000
H     2.432000000     1.330000000     1.566000000
C     3.015000000    -0.478000000     3.845000000
C     4.372000000    -0.732000000     3.231000000
H     4.890000000    -1.574000000     3.694000000
H     5.045000000     0.113000000     3.396000000
C     4.396000000    -0.855000000     1.729000000
C     4.357000000    -2.083000000     1.099000000
H     4.294000000    -3.026000000     1.636000000
C     4.550000000     0.294000000     0.950000000
C     4.694000000     0.192000000    -0.456000000
H     4.818000000     1.101000000    -1.039000000
C     4.572000000    -1.041000000    -1.139000000
O     4.413000000    -1.065000000    -2.535000000
C     3.047000000    -1.231000000    -3.170000000
C     2.844000000    -0.310000000    -4.344000000
C     3.537000000     0.904000000    -4.532000000
H     4.385000000     1.142000000    -3.896000000
C     1.739000000    -0.595000000    -5.120000000
H     1.215000000    -1.541000000    -5.016000000
O     2.836000000    -2.593000000    -3.386000000
H     2.298000000    -1.059000000    -2.383000000
C     4.384000000    -2.189000000    -0.339000000
C     4.275000000    -3.534000000    -1.015000000
H     4.722000000    -4.281000000    -0.356000000
H     4.852000000    -3.531000000    -1.942000000
C     2.839000000    -3.856000000    -1.278000000
C     2.159000000    -3.335000000    -2.408000000
C     0.789000000    -3.574000000    -2.581000000
H     0.353000000    -3.218000000    -3.511000000
C     0.068000000    -4.348000000    -1.633000000
O    -1.309000000    -4.505000000    -1.844000000
C    -2.194000000    -3.708000000    -1.058000000
H    -1.570000000    -2.870000000    -0.714000000
C    -3.344000000    -3.034000000    -1.869000000
C    -4.494000000    -2.576000000    -1.229000000
H    -4.722000000    -2.794000000    -0.189000000
C    -3.081000000    -2.624000000    -3.211000000
H    -2.102000000    -2.876000000    -3.612000000
C    -4.004000000    -1.851000000    -3.883000000
O    -3.795000000    -1.336000000    -5.119000000
C    -5.197000000    -1.539000000    -3.295000000
H    -5.976000000    -0.976000000    -3.803000000
C    -5.482000000    -1.906000000    -1.992000000
O    -6.693000000    -1.508000000    -1.423000000
C    -6.918000000    -1.205000000    -0.126000000
C    -6.436000000     0.007000000     0.411000000
H    -5.844000000     0.670000000    -0.215000000
C    -7.721000000    -2.106000000     0.538000000
H    -8.181000000    -2.946000000     0.024000000
C    -7.960000000    -1.943000000     1.895000000
H    -8.449000000    -2.699000000     2.505000000
C    -7.536000000    -0.715000000     2.469000000
H    -7.795000000    -0.548000000     3.511000000
C    -6.772000000     0.252000000     1.737000000
O    -6.368000000     1.377000000     2.386000000
C    -5.043000000     1.597000000     2.696000000
C    -4.685000000     2.889000000     3.091000000
H    -5.310000000     3.751000000     2.871000000
C    -3.552000000     3.143000000     3.826000000
O    -3.315000000     4.487000000     4.132000000
C    -2.011000000     4.885000000     4.479000000
C    -1.180000000     5.355000000     3.474000000
H    -1.478000000     5.320000000     2.429000000
C    -1.607000000     4.912000000     5.803000000
H    -2.210000000     4.537000000     6.625000000
C    -0.395000000     5.511000000     6.085000000
H    -0.049000000     5.772000000     7.081000000
C     0.472000000     5.872000000     5.073000000
H     1.527000000     6.007000000     5.297000000
C     0.063000000     5.912000000     3.729000000
O     0.896000000     6.203000000     2.710000000
C     1.503000000     5.312000000     1.877000000
C     1.667000000     5.741000000     0.593000000
H     1.385000000     6.724000000     0.224000000
C     2.400000000     4.947000000    -0.281000000
O     2.715000000     5.486000000    -1.554000000
C     3.661000000     4.980000000    -2.424000000
C     3.300000000     4.309000000    -3.564000000
H     2.248000000     4.146000000    -3.786000000
C     4.989000000     5.082000000    -2.077000000
H     5.247000000     5.626000000    -1.172000000
C     5.937000000     4.607000000    -3.005000000
H     7.017000000     4.680000000    -2.907000000
C     5.565000000     3.962000000    -4.178000000
H     6.273000000     3.396000000    -4.777000000
C     4.217000000     3.743000000    -4.413000000
O     3.904000000     3.039000000    -5.568000000
C     3.162000000     1.823000000    -5.484000000
C     2.096000000     1.553000000    -6.316000000
H     1.765000000     2.295000000    -7.039000000
C     1.429000000     0.298000000    -6.204000000
O     0.452000000     0.003000000    -7.129000000
C    -0.556000000    -0.918000000    -6.832000000
C    -0.439000000    -2.246000000    -7.333000000
H     0.455000000    -2.503000000    -7.894000000
C    -1.440000000    -3.199000000    -7.123000000
H    -1.468000000    -4.169000000    -7.613000000
C    -2.534000000    -2.845000000    -6.386000000
H    -3.387000000    -3.494000000    -6.203000000
C    -2.619000000    -1.600000000    -5.790000000
C    -1.691000000    -0.601000000    -6.084000000
H    -1.747000000     0.423000000    -5.724000000
C     0.079000000     2.240000000    -0.596000000
H     0.360000000     3.219000000    -0.976000000
C     1.089000000     1.237000000    -0.487000000
H     2.119000000     1.387000000    -0.802000000
C     0.725000000    -0.017000000    -0.014000000
H     1.441000000    -0.833000000     0.211000000
C    -0.566000000    -0.238000000     0.452000000
H    -0.723000000    -1.134000000     1.046000000
C    -1.570000000     0.728000000     0.282000000
H    -2.614000000     0.562000000     0.538000000
C    -1.285000000     1.963000000    -0.252000000
C    -2.287000000     3.050000000    -0.505000000
O    -3.456000000     2.757000000    -0.591000000
O    -2.095000000     4.258000000    -0.591000000
O    -1.183000000     1.109000000    -3.079000000
H    -0.471000000     1.063000000    -2.442000000
H    -1.393000000     0.195000000    -3.272000000
O    -3.827000000     5.090000000     1.072000000
H    -3.262000000     4.679000000     0.418000000
H    -4.287000000     4.359000000     1.484000000
O    -0.578000000     5.643000000    -3.384000000
H    -1.485000000     5.920000000    -3.261000000
H    -0.465000000     4.913000000    -2.775000000
O    -4.025000000     1.519000000    -2.960000000
H    -4.013000000     2.200000000    -2.287000000
H    -3.105000000     1.287000000    -3.083000000
O    -3.728000000     5.750000000    -2.170000000
H    -3.650000000     5.339000000    -3.031000000
H    -3.246000000     5.167000000    -1.582000000
O    -4.633000000     9.560000000    -0.970000000
H    -3.749000000     9.199000000    -0.905000000
H    -4.506000000    10.509000000    -0.945000000
O    -7.351000000     5.134000000    -4.719000000
H    -7.646000000     4.449000000    -4.120000000
H    -7.604000000     5.952000000    -4.292000000
O     1.818000000     8.572000000    -1.930000000
H     2.396000000     8.951000000    -2.592000000
H     1.756000000     7.647000000    -2.167000000
O    -7.178000000     5.836000000     0.944000000
H    -7.036000000     5.081000000     0.373000000
H    -6.414000000     6.394000000     0.799000000
O    -4.483000000     4.619000000    -4.676000000
H    -5.440000000     4.628000000    -4.679000000
H    -4.238000000     4.953000000    -5.539000000
O    -6.439000000     1.661000000    -4.569000000
H    -5.634000000     1.704000000    -4.053000000
H    -7.140000000     1.803000000    -3.933000000
O    -0.132000000     9.484000000     1.052000000
H    -0.683000000     8.976000000     1.649000000
H    -0.543000000     9.374000000     0.195000000
O    -5.740000000     3.828000000    -0.955000000
H    -5.303000000     4.250000000    -1.695000000
H    -5.027000000     3.466000000    -0.430000000
O    -2.987000000     2.030000000    -7.637000000
H    -3.804000000     2.456000000    -7.379000000
H    -2.311000000     2.480000000    -7.132000000
O    -1.981000000     3.280000000    -5.413000000
H    -1.922000000     2.674000000    -4.674000000
H    -2.818000000     3.728000000    -5.289000000
O    -7.806000000     3.331000000    -2.740000000
H    -7.373000000     3.532000000    -1.910000000
H    -8.668000000     3.000000000    -2.487000000
O    -2.218000000     7.990000000    -1.167000000
H    -2.878000000     7.552000000    -1.705000000
H    -1.661000000     8.447000000    -1.797000000
O    -4.925000000     4.240000000     6.510000000
H    -5.225000000     5.142000000     6.398000000
H    -4.431000000     4.052000000     5.712000000
O    -4.755000000     7.647000000     1.476000000
H    -4.894000000     8.085000000     0.636000000
H    -4.262000000     6.856000000     1.255000000
