215
-1462.54210
C    -1.273000000     2.526000000     4.479000000
H    -0.213000000     2.766000000     4.504000000
C    -1.622000000     1.204000000     4.272000000
C    -2.980000000     0.879000000     4.161000000
H    -3.132000000    -0.161000000     3.883000000
C    -0.501000000     0.126000000     4.321000000
O     0.694000000     0.500000000     5.014000000
H    -0.092000000    -0.058000000     3.316000000
O    -0.981000000    -1.155000000     4.775000000
C    -0.689000000    -2.256000000     3.970000000
C    -1.681000000    -2.877000000     3.217000000
H    -2.739000000    -2.649000000     3.319000000
C    -1.317000000    -3.832000000     2.312000000
O    -2.212000000    -4.305000000     1.445000000
C     0.043000000    -4.306000000     2.278000000
C     0.418000000    -5.441000000     1.269000000
H     1.256000000    -6.014000000     1.670000000
C     0.762000000    -4.849000000    -0.089000000
C     2.096000000    -4.522000000    -0.442000000
H     2.814000000    -4.629000000     0.367000000
H    -0.471000000    -6.068000000     1.172000000
C     1.019000000    -3.803000000     3.132000000
H     2.035000000    -4.188000000     3.091000000
C     0.662000000    -2.755000000     3.953000000
C     1.738000000    -2.183000000     4.867000000
H     2.532000000    -2.916000000     5.028000000
H     1.319000000    -1.860000000     5.822000000
C     2.413000000    -0.991000000     4.152000000
C     3.426000000    -1.244000000     3.258000000
H     3.823000000    -2.249000000     3.139000000
C     1.973000000     0.312000000     4.376000000
C     2.477000000     1.352000000     3.674000000
H     1.956000000     2.303000000     3.745000000
C     3.519000000     1.168000000     2.776000000
O     3.881000000     2.251000000     2.021000000
C     3.510000000     2.164000000     0.627000000
C     3.188000000     3.582000000     0.184000000
C     3.670000000     4.053000000    -1.102000000
H     4.449000000     3.615000000    -1.720000000
C     2.194000000     4.256000000     0.775000000
H     1.788000000     3.910000000     1.722000000
O     4.760000000     1.776000000    -0.075000000
H     2.705000000     1.442000000     0.425000000
C     4.075000000    -0.133000000     2.674000000
C     5.298000000    -0.366000000     1.800000000
H     5.771000000    -1.292000000     2.134000000
H     5.976000000     0.489000000     1.837000000
C     4.990000000    -0.545000000     0.341000000
C     4.824000000    -1.865000000    -0.192000000
H     4.903000000    -2.754000000     0.429000000
C     4.792000000     0.505000000    -0.531000000
C     4.343000000     0.265000000    -1.782000000
H     4.198000000     1.159000000    -2.383000000
C     3.932000000    -1.005000000    -2.266000000
O     3.247000000    -1.062000000    -3.451000000
C     1.887000000    -1.435000000    -3.373000000
C     1.126000000    -0.575000000    -4.332000000
C     1.406000000     0.730000000    -4.649000000
H     2.286000000     1.179000000    -4.196000000
C    -0.158000000    -1.090000000    -4.764000000
H    -0.360000000    -2.156000000    -4.695000000
O     1.646000000    -2.804000000    -3.633000000
H     1.424000000    -1.265000000    -2.390000000
C     4.200000000    -2.068000000    -1.429000000
C     3.864000000    -3.541000000    -1.868000000
H     4.433000000    -4.311000000    -1.344000000
H     3.999000000    -3.677000000    -2.943000000
C     2.412000000    -3.898000000    -1.633000000
C     1.394000000    -3.634000000    -2.533000000
C     0.092000000    -3.997000000    -2.266000000
H    -0.696000000    -3.738000000    -2.969000000
C    -0.225000000    -4.541000000    -1.019000000
O    -1.575000000    -4.715000000    -0.783000000
C    -2.182000000    -3.746000000     0.124000000
H    -1.562000000    -2.837000000     0.113000000
C    -3.541000000    -3.256000000    -0.332000000
C    -4.531000000    -2.862000000     0.624000000
H    -4.364000000    -2.959000000     1.693000000
C    -3.853000000    -3.201000000    -1.733000000
H    -3.183000000    -3.524000000    -2.527000000
C    -5.108000000    -2.730000000    -2.142000000
O    -5.509000000    -2.571000000    -3.469000000
C    -5.959000000    -2.212000000    -1.183000000
H    -6.761000000    -1.577000000    -1.549000000
C    -5.753000000    -2.354000000     0.195000000
O    -6.680000000    -1.947000000     1.114000000
C    -6.495000000    -1.388000000     2.320000000
C    -5.952000000    -0.096000000     2.401000000
H    -5.640000000     0.435000000     1.505000000
C    -6.856000000    -2.108000000     3.442000000
H    -7.207000000    -3.137000000     3.407000000
C    -6.691000000    -1.528000000     4.696000000
H    -7.144000000    -2.081000000     5.514000000
C    -6.220000000    -0.195000000     4.808000000
H    -6.063000000     0.261000000     5.782000000
C    -5.743000000     0.455000000     3.624000000
O    -5.162000000     1.718000000     3.634000000
C    -3.917000000     1.929000000     4.122000000
C    -3.508000000     3.246000000     4.214000000
H    -4.264000000     4.023000000     4.129000000
C    -2.170000000     3.524000000     4.484000000
O    -1.828000000     4.833000000     4.634000000
C    -0.800000000     5.490000000     3.980000000
C    -0.571000000     5.402000000     2.602000000
H    -1.190000000     4.725000000     2.020000000
C    -0.042000000     6.191000000     4.841000000
H    -0.283000000     6.205000000     5.901000000
C     0.923000000     7.071000000     4.289000000
H     1.496000000     7.713000000     4.953000000
C     1.187000000     7.108000000     2.918000000
H     1.977000000     7.660000000     2.414000000
C     0.451000000     6.219000000     2.100000000
O     0.671000000     6.252000000     0.785000000
C     1.629000000     5.412000000     0.169000000
C     2.132000000     5.917000000    -1.014000000
H     1.701000000     6.841000000    -1.392000000
C     3.114000000     5.144000000    -1.734000000
O     3.528000000     5.620000000    -2.958000000
C     3.370000000     4.834000000    -4.076000000
C     2.222000000     4.186000000    -4.385000000
H     1.380000000     4.307000000    -3.708000000
C     4.442000000     4.792000000    -4.967000000
H     5.356000000     5.306000000    -4.681000000
C     4.372000000     4.015000000    -6.103000000
H     5.238000000     3.952000000    -6.756000000
C     3.136000000     3.513000000    -6.542000000
H     3.046000000     3.016000000    -7.504000000
C     2.088000000     3.555000000    -5.665000000
O     1.006000000     2.782000000    -6.003000000
C     0.636000000     1.460000000    -5.553000000
C    -0.543000000     0.876000000    -6.058000000
H    -1.230000000     1.436000000    -6.686000000
C    -0.927000000    -0.414000000    -5.633000000
O    -2.064000000    -0.885000000    -6.257000000
C    -2.732000000    -1.930000000    -5.779000000
C    -2.416000000    -3.287000000    -6.212000000
H    -1.549000000    -3.445000000    -6.848000000
C    -3.114000000    -4.346000000    -5.610000000
H    -2.931000000    -5.365000000    -5.941000000
C    -4.220000000    -4.090000000    -4.853000000
H    -4.800000000    -4.927000000    -4.473000000
C    -4.594000000    -2.783000000    -4.488000000
C    -3.861000000    -1.707000000    -4.993000000
H    -4.167000000    -0.731000000    -4.628000000
C     0.075000000     2.374000000    -1.471000000
H     0.208000000     2.907000000    -2.409000000
C     0.768000000     1.245000000    -1.200000000
H     1.584000000     0.901000000    -1.830000000
C     0.410000000     0.434000000    -0.111000000
H     0.995000000    -0.437000000     0.100000000
C    -0.714000000     0.776000000     0.609000000
H    -1.068000000     0.047000000     1.333000000
C    -1.387000000     1.961000000     0.411000000
H    -2.340000000     2.026000000     0.931000000
C    -0.981000000     2.826000000    -0.586000000
C    -1.860000000     4.055000000    -1.002000000
O    -2.802000000     4.422000000    -0.314000000
O    -1.665000000     4.622000000    -2.063000000
O    -3.594000000     1.551000000    -4.219000000
H    -2.892000000     2.198000000    -4.284000000
H    -3.971000000     1.518000000    -5.098000000
O     0.993000000     9.380000000    -2.244000000
H     0.689000000     8.474000000    -2.298000000
H     0.209000000     9.905000000    -2.402000000
O    -3.990000000     5.808000000     1.618000000
H    -4.127000000     6.711000000     1.333000000
H    -3.709000000     5.347000000     0.828000000
O    -1.996000000     3.733000000    -4.492000000
H    -1.495000000     4.328000000    -5.050000000
H    -1.748000000     3.976000000    -3.600000000
O    -6.293000000     5.281000000     2.842000000
H    -6.694000000     4.570000000     2.343000000
H    -5.642000000     5.655000000     2.248000000
O    -1.900000000    -0.786000000    -2.023000000
H    -1.543000000    -0.546000000    -1.168000000
H    -1.912000000     0.034000000    -2.516000000
O    -4.297000000     5.888000000    -1.788000000
H    -3.878000000     5.811000000    -2.645000000
H    -3.805000000     5.288000000    -1.227000000
O    -1.266000000     9.106000000     0.867000000
H    -2.180000000     9.345000000     0.715000000
H    -1.263000000     8.710000000     1.738000000
O    -1.528000000    10.335000000    -1.829000000
H    -1.753000000     9.465000000    -1.500000000
H    -1.577000000    10.902000000    -1.059000000
O    -4.366000000     8.468000000     0.568000000
H    -4.726000000     9.290000000     0.899000000
H    -4.549000000     8.487000000    -0.372000000
O    -7.491000000     2.978000000     1.327000000
H    -6.658000000     2.992000000     0.856000000
H    -7.807000000     2.080000000     1.227000000
O    -0.721000000     6.489000000    -4.824000000
H    -0.643000000     7.349000000    -5.237000000
H    -1.189000000     6.659000000    -4.006000000
O    -3.861000000     5.521000000    -4.446000000
H    -4.700000000     5.255000000    -4.822000000
H    -3.333000000     4.722000000    -4.448000000
O    -6.764000000     7.028000000    -1.524000000
H    -7.480000000     6.674000000    -2.051000000
H    -5.997000000     6.520000000    -1.790000000
O    -4.871000000     2.577000000     0.168000000
H    -4.149000000     3.191000000     0.038000000
H    -4.554000000     1.753000000    -0.201000000
O    -0.382000000     5.079000000    -7.481000000
H    -0.064000000     5.246000000    -6.594000000
H    -1.195000000     4.589000000    -7.356000000
O    -7.095000000     0.690000000    -2.378000000
H    -7.766000000     1.090000000    -1.824000000
H    -6.326000000     0.622000000    -1.812000000
O    -1.530000000     7.347000000    -1.485000000
H    -1.780000000     6.424000000    -1.528000000
H    -1.579000000     7.565000000    -0.554000000
O    -4.504000000     0.690000000    -1.725000000
H    -4.077000000    -0.166000000    -1.762000000
H    -4.340000000     1.077000000    -2.585000000
