215
-1461.83427
C    -1.947000000     2.252000000     4.313000000
H    -1.095000000     2.787000000     3.903000000
C    -1.950000000     0.870000000     4.532000000
C    -3.146000000     0.322000000     4.936000000
H    -3.166000000    -0.737000000     5.183000000
C    -0.661000000     0.090000000     4.180000000
O     0.475000000     0.748000000     4.725000000
H    -0.558000000     0.015000000     3.087000000
O    -0.654000000    -1.233000000     4.842000000
C    -0.200000000    -2.259000000     4.088000000
C    -1.133000000    -2.982000000     3.383000000
H    -2.193000000    -2.761000000     3.474000000
C    -0.680000000    -3.809000000     2.408000000
O    -1.638000000    -4.212000000     1.466000000
C     0.590000000    -4.294000000     2.327000000
C     1.011000000    -5.350000000     1.329000000
H     1.873000000    -5.901000000     1.711000000
C     1.402000000    -4.747000000    -0.020000000
C     2.725000000    -4.233000000    -0.189000000
H     3.468000000    -4.243000000     0.603000000
H     0.185000000    -6.036000000     1.136000000
C     1.538000000    -3.609000000     3.136000000
H     2.565000000    -3.959000000     3.202000000
C     1.143000000    -2.517000000     3.964000000
C     2.166000000    -1.793000000     4.808000000
H     3.063000000    -2.407000000     4.906000000
H     1.723000000    -1.679000000     5.800000000
C     2.531000000    -0.436000000     4.136000000
C     3.681000000    -0.405000000     3.331000000
H     4.211000000    -1.316000000     3.067000000
C     1.739000000     0.706000000     4.199000000
C     2.129000000     1.867000000     3.540000000
H     1.593000000     2.810000000     3.479000000
C     3.320000000     1.946000000     2.866000000
O     3.533000000     3.016000000     2.044000000
C     3.178000000     3.045000000     0.664000000
C     2.438000000     4.295000000     0.112000000
C     2.578000000     4.672000000    -1.221000000
H     3.328000000     4.203000000    -1.854000000
C     1.433000000     4.899000000     0.842000000
H     1.194000000     4.443000000     1.799000000
O     4.327000000     2.619000000    -0.193000000
H     2.449000000     2.260000000     0.415000000
C     4.121000000     0.808000000     2.743000000
C     5.392000000     0.805000000     1.806000000
H     6.073000000     0.118000000     2.313000000
H     5.921000000     1.760000000     1.769000000
C     4.935000000     0.346000000     0.436000000
C     4.941000000    -1.044000000     0.150000000
H     5.204000000    -1.760000000     0.924000000
C     4.530000000     1.294000000    -0.518000000
C     4.152000000     0.840000000    -1.740000000
H     3.733000000     1.568000000    -2.429000000
C     4.102000000    -0.523000000    -2.064000000
O     3.576000000    -0.802000000    -3.291000000
C     2.264000000    -1.396000000    -3.392000000
C     1.451000000    -0.818000000    -4.542000000
C     1.471000000     0.581000000    -4.757000000
H     2.167000000     1.205000000    -4.202000000
C     0.460000000    -1.631000000    -5.234000000
H     0.321000000    -2.687000000    -5.018000000
O     2.466000000    -2.793000000    -3.476000000
H     1.738000000    -1.175000000    -2.451000000
C     4.470000000    -1.506000000    -1.099000000
C     4.483000000    -2.997000000    -1.412000000
H     5.097000000    -3.414000000    -0.612000000
H     4.906000000    -3.176000000    -2.403000000
C     3.100000000    -3.534000000    -1.344000000
C     2.158000000    -3.539000000    -2.385000000
C     0.832000000    -3.837000000    -2.151000000
H    -0.007000000    -3.713000000    -2.832000000
C     0.458000000    -4.459000000    -0.952000000
O    -0.894000000    -4.703000000    -0.704000000
C    -1.514000000    -3.692000000     0.095000000
H    -0.853000000    -2.813000000     0.113000000
C    -2.813000000    -3.232000000    -0.504000000
C    -3.679000000    -2.488000000     0.306000000
H    -3.386000000    -2.327000000     1.340000000
C    -3.123000000    -3.373000000    -1.880000000
H    -2.424000000    -3.981000000    -2.448000000
C    -4.259000000    -2.744000000    -2.340000000
O    -4.684000000    -3.072000000    -3.620000000
C    -5.164000000    -2.050000000    -1.541000000
H    -6.015000000    -1.552000000    -1.997000000
C    -4.865000000    -1.960000000    -0.191000000
O    -5.796000000    -1.317000000     0.613000000
C    -6.020000000    -1.556000000     1.986000000
C    -5.580000000    -0.593000000     2.840000000
H    -5.161000000     0.307000000     2.399000000
C    -6.801000000    -2.545000000     2.420000000
H    -7.273000000    -3.321000000     1.823000000
C    -7.130000000    -2.616000000     3.725000000
H    -7.789000000    -3.427000000     4.023000000
C    -6.603000000    -1.757000000     4.658000000
H    -6.854000000    -1.898000000     5.706000000
C    -5.792000000    -0.708000000     4.221000000
O    -5.509000000     0.325000000     5.086000000
C    -4.321000000     1.021000000     5.011000000
C    -4.323000000     2.367000000     4.696000000
H    -5.259000000     2.919000000     4.684000000
C    -3.099000000     2.990000000     4.505000000
O    -3.087000000     4.370000000     4.263000000
C    -1.937000000     5.045000000     3.992000000
C    -1.700000000     5.365000000     2.653000000
H    -2.362000000     4.881000000     1.940000000
C    -1.121000000     5.550000000     5.032000000
H    -1.403000000     5.326000000     6.058000000
C    -0.142000000     6.509000000     4.715000000
H     0.527000000     6.935000000     5.458000000
C     0.145000000     6.767000000     3.346000000
H     1.032000000     7.340000000     3.089000000
C    -0.641000000     6.228000000     2.309000000
O    -0.349000000     6.463000000     0.963000000
C     0.707000000     5.939000000     0.288000000
C     0.981000000     6.391000000    -0.985000000
H     0.377000000     7.191000000    -1.405000000
C     1.876000000     5.729000000    -1.806000000
O     2.201000000     6.044000000    -3.138000000
C     2.407000000     5.107000000    -4.109000000
C     1.452000000     4.232000000    -4.611000000
H     0.442000000     4.232000000    -4.208000000
C     3.694000000     5.060000000    -4.604000000
H     4.456000000     5.751000000    -4.254000000
C     4.013000000     4.110000000    -5.612000000
H     5.058000000     4.095000000    -5.910000000
C     3.095000000     3.267000000    -6.158000000
H     3.393000000     2.466000000    -6.829000000
C     1.777000000     3.289000000    -5.631000000
O     0.733000000     2.522000000    -6.087000000
C     0.650000000     1.165000000    -5.752000000
C    -0.214000000     0.334000000    -6.478000000
H    -0.755000000     0.742000000    -7.328000000
C    -0.396000000    -0.997000000    -6.133000000
O    -1.445000000    -1.696000000    -6.716000000
C    -2.068000000    -2.746000000    -6.139000000
C    -2.095000000    -4.019000000    -6.665000000
H    -1.522000000    -4.232000000    -7.563000000
C    -2.955000000    -5.011000000    -6.214000000
H    -3.078000000    -5.983000000    -6.685000000
C    -3.756000000    -4.708000000    -5.152000000
H    -4.347000000    -5.532000000    -4.761000000
C    -3.712000000    -3.388000000    -4.609000000
C    -2.941000000    -2.400000000    -5.113000000
H    -3.117000000    -1.395000000    -4.737000000
C    -0.901000000     2.788000000    -1.213000000
H    -0.976000000     3.614000000    -1.916000000
C     0.222000000     1.943000000    -1.242000000
H     1.077000000     2.218000000    -1.853000000
C     0.349000000     0.843000000    -0.431000000
H     1.283000000     0.238000000    -0.497000000
C    -0.786000000     0.465000000     0.341000000
H    -0.694000000    -0.466000000     0.894000000
C    -1.874000000     1.331000000     0.459000000
H    -2.721000000     1.007000000     1.058000000
C    -1.946000000     2.497000000    -0.280000000
C    -3.117000000     3.452000000    -0.132000000
O    -3.969000000     3.328000000     0.713000000
O    -3.110000000     4.541000000    -0.686000000
O    -2.568000000     2.029000000    -4.640000000
H    -2.293000000     2.868000000    -5.008000000
H    -2.867000000     1.522000000    -5.395000000
O    -5.677000000     4.926000000     2.442000000
H    -6.504000000     4.555000000     2.135000000
H    -5.006000000     4.351000000     2.074000000
O    -8.209000000     0.527000000    -2.173000000
H    -8.259000000    -0.033000000    -2.948000000
H    -7.353000000     0.950000000    -2.238000000
O    -2.084000000     4.634000000    -5.368000000
H    -1.595000000     5.305000000    -5.845000000
H    -2.469000000     5.100000000    -4.626000000
O    -6.845000000     5.640000000     4.915000000
H    -6.284000000     5.498000000     4.152000000
H    -7.051000000     6.574000000     4.890000000
O    -3.464000000     0.572000000    -2.325000000
H    -2.826000000     0.297000000    -1.666000000
H    -2.934000000     0.942000000    -3.031000000
O    -5.924000000     5.505000000    -0.883000000
H    -5.832000000     6.458000000    -0.916000000
H    -5.026000000     5.180000000    -0.828000000
O    -2.346000000     8.853000000     2.357000000
H    -2.101000000     9.651000000     1.888000000
H    -2.061000000     9.008000000     3.258000000
O    -5.268000000     8.707000000    -1.216000000
H    -5.272000000     8.631000000    -2.170000000
H    -4.476000000     8.245000000    -0.942000000
O    -7.744000000     2.344000000     3.917000000
H    -7.014000000     2.358000000     3.299000000
H    -8.514000000     2.173000000     3.375000000
O    -3.098000000     5.825000000    -3.161000000
H    -2.949000000     6.715000000    -2.843000000
H    -3.001000000     5.274000000    -2.384000000
O    -8.708000000     5.843000000    -0.729000000
H    -7.849000000     5.420000000    -0.732000000
H    -8.805000000     6.180000000     0.161000000
O    -6.393000000     2.432000000     1.525000000
H    -5.504000000     2.415000000     1.169000000
H    -6.919000000     1.964000000     0.876000000
O    -4.824000000     7.562000000     3.253000000
H    -5.367000000     6.831000000     2.959000000
H    -3.958000000     7.379000000     2.889000000
O    -5.991000000     0.693000000    -4.242000000
H    -5.787000000     0.889000000    -3.328000000
H    -5.214000000     0.973000000    -4.726000000
O    -1.616000000     9.871000000    -0.506000000
H    -2.200000000    10.411000000     0.026000000
H    -2.166000000     9.149000000    -0.808000000
O    -3.224000000     7.216000000    -0.471000000
H    -3.035000000     6.283000000    -0.569000000
H    -2.799000000     7.461000000     0.352000000
O    -5.554000000     2.379000000    -1.969000000
H    -4.733000000     1.887000000    -1.984000000
H    -5.448000000     3.000000000    -1.248000000
O    -6.777000000     4.509000000    -3.314000000
H    -6.231000000     3.724000000    -3.327000000
H    -6.821000000     4.755000000    -2.390000000
