215
-1464.56438
C    -1.147000000     2.849000000     4.989000000
H    -0.078000000     3.046000000     5.015000000
C    -1.590000000     1.568000000     4.701000000
C    -2.938000000     1.316000000     4.445000000
H    -3.368000000     0.389000000     4.074000000
C    -0.603000000     0.391000000     4.428000000
O     0.748000000     0.576000000     5.010000000
H    -0.500000000     0.530000000     3.341000000
O    -1.232000000    -0.872000000     4.853000000
C    -0.928000000    -1.975000000     4.117000000
C    -1.947000000    -2.498000000     3.279000000
H    -2.935000000    -2.049000000     3.226000000
C    -1.637000000    -3.476000000     2.413000000
O    -2.603000000    -3.845000000     1.491000000
C    -0.398000000    -4.068000000     2.373000000
C    -0.109000000    -5.268000000     1.606000000
H     0.592000000    -5.916000000     2.137000000
C     0.296000000    -4.886000000     0.118000000
C     1.665000000    -4.621000000    -0.185000000
H     2.411000000    -4.831000000     0.577000000
H    -0.969000000    -5.941000000     1.625000000
C     0.608000000    -3.638000000     3.230000000
H     1.552000000    -4.176000000     3.212000000
C     0.398000000    -2.569000000     4.124000000
C     1.569000000    -2.099000000     4.942000000
H     2.158000000    -2.966000000     5.249000000
H     1.146000000    -1.613000000     5.823000000
C     2.330000000    -1.023000000     4.162000000
C     3.475000000    -1.329000000     3.448000000
H     3.759000000    -2.377000000     3.404000000
C     1.885000000     0.294000000     4.299000000
C     2.527000000     1.368000000     3.642000000
H     2.106000000     2.369000000     3.608000000
C     3.561000000     1.028000000     2.783000000
O     4.021000000     2.104000000     1.905000000
C     3.577000000     1.962000000     0.549000000
C     2.929000000     3.215000000    -0.010000000
C     3.288000000     3.757000000    -1.225000000
H     4.061000000     3.234000000    -1.782000000
C     1.913000000     3.884000000     0.643000000
H     1.565000000     3.533000000     1.612000000
O     4.632000000     1.423000000    -0.222000000
H     2.791000000     1.193000000     0.526000000
C     4.136000000    -0.310000000     2.734000000
C     5.345000000    -0.595000000     1.921000000
H     5.970000000    -1.357000000     2.392000000
H     5.927000000     0.329000000     1.951000000
C     4.862000000    -0.929000000     0.430000000
C     4.565000000    -2.284000000     0.123000000
H     4.733000000    -3.014000000     0.910000000
C     4.691000000     0.090000000    -0.513000000
C     4.249000000    -0.172000000    -1.818000000
H     4.021000000     0.633000000    -2.512000000
C     3.918000000    -1.521000000    -2.132000000
O     3.268000000    -1.717000000    -3.299000000
C     1.832000000    -1.868000000    -3.358000000
C     1.262000000    -0.954000000    -4.441000000
C     1.801000000     0.273000000    -4.862000000
H     2.830000000     0.545000000    -4.642000000
C    -0.074000000    -1.277000000    -4.856000000
H    -0.637000000    -2.133000000    -4.495000000
O     1.323000000    -3.260000000    -3.478000000
H     1.454000000    -1.487000000    -2.397000000
C     4.102000000    -2.582000000    -1.188000000
C     3.612000000    -3.983000000    -1.629000000
H     4.169000000    -4.771000000    -1.118000000
H     3.769000000    -4.092000000    -2.704000000
C     2.096000000    -4.249000000    -1.469000000
C     1.066000000    -3.994000000    -2.360000000
C    -0.244000000    -4.289000000    -2.135000000
H    -0.999000000    -4.065000000    -2.886000000
C    -0.647000000    -4.674000000    -0.877000000
O    -1.997000000    -4.620000000    -0.632000000
C    -2.400000000    -3.431000000     0.150000000
H    -1.575000000    -2.706000000     0.103000000
C    -3.595000000    -2.798000000    -0.439000000
C    -4.340000000    -1.866000000     0.262000000
H    -4.094000000    -1.488000000     1.251000000
C    -3.961000000    -3.029000000    -1.758000000
H    -3.251000000    -3.629000000    -2.321000000
C    -5.055000000    -2.351000000    -2.305000000
O    -5.355000000    -2.502000000    -3.613000000
C    -5.919000000    -1.603000000    -1.472000000
H    -6.814000000    -1.197000000    -1.936000000
C    -5.516000000    -1.331000000    -0.202000000
O    -6.379000000    -0.557000000     0.476000000
C    -6.232000000    -0.346000000     1.817000000
C    -5.858000000     0.860000000     2.347000000
H    -5.642000000     1.680000000     1.667000000
C    -6.571000000    -1.383000000     2.610000000
H    -6.808000000    -2.368000000     2.217000000
C    -6.476000000    -1.171000000     4.012000000
H    -6.809000000    -1.975000000     4.664000000
C    -6.116000000     0.076000000     4.575000000
H    -5.987000000     0.206000000     5.647000000
C    -5.712000000     1.093000000     3.684000000
O    -5.202000000     2.289000000     4.143000000
C    -3.885000000     2.394000000     4.563000000
C    -3.457000000     3.711000000     4.798000000
H    -4.181000000     4.520000000     4.837000000
C    -2.076000000     3.912000000     5.032000000
O    -1.646000000     5.257000000     5.203000000
C    -0.719000000     5.681000000     4.294000000
C    -0.797000000     5.513000000     2.936000000
H    -1.723000000     5.142000000     2.504000000
C     0.533000000     6.130000000     4.801000000
H     0.494000000     6.238000000     5.882000000
C     1.606000000     6.444000000     4.036000000
H     2.571000000     6.733000000     4.443000000
C     1.481000000     6.381000000     2.619000000
H     2.298000000     6.626000000     1.945000000
C     0.281000000     5.895000000     2.071000000
O     0.262000000     5.720000000     0.714000000
C     1.206000000     4.943000000     0.046000000
C     1.662000000     5.509000000    -1.146000000
H     1.245000000     6.436000000    -1.530000000
C     2.742000000     4.956000000    -1.727000000
O     3.063000000     5.388000000    -2.952000000
C     3.409000000     4.536000000    -4.040000000
C     2.436000000     3.641000000    -4.627000000
H     1.457000000     3.457000000    -4.190000000
C     4.617000000     4.788000000    -4.733000000
H     5.240000000     5.611000000    -4.391000000
C     4.915000000     4.021000000    -5.844000000
H     5.905000000     4.089000000    -6.287000000
C     4.025000000     3.143000000    -6.420000000
H     4.264000000     2.520000000    -7.278000000
C     2.786000000     2.968000000    -5.774000000
O     1.796000000     2.185000000    -6.393000000
C     1.216000000     1.038000000    -5.849000000
C     0.018000000     0.642000000    -6.336000000
H    -0.438000000     1.305000000    -7.067000000
C    -0.692000000    -0.505000000    -5.846000000
O    -1.882000000    -0.896000000    -6.517000000
C    -2.638000000    -1.911000000    -5.952000000
C    -2.386000000    -3.243000000    -6.411000000
H    -1.549000000    -3.395000000    -7.089000000
C    -3.160000000    -4.302000000    -5.982000000
H    -2.915000000    -5.283000000    -6.381000000
C    -4.139000000    -4.092000000    -5.036000000
H    -4.749000000    -4.883000000    -4.607000000
C    -4.415000000    -2.792000000    -4.581000000
C    -3.613000000    -1.642000000    -5.016000000
H    -3.718000000    -0.658000000    -4.566000000
C    -0.454000000     2.770000000    -1.447000000
H    -0.427000000     3.452000000    -2.292000000
C     0.407000000     1.653000000    -1.522000000
H     1.055000000     1.565000000    -2.391000000
C     0.451000000     0.733000000    -0.500000000
H     1.023000000    -0.193000000    -0.479000000
C    -0.459000000     0.885000000     0.561000000
H    -0.538000000     0.023000000     1.218000000
C    -1.241000000     2.073000000     0.683000000
H    -1.869000000     2.246000000     1.554000000
C    -1.305000000     2.944000000    -0.354000000
C    -2.294000000     4.170000000    -0.369000000
O    -3.248000000     4.204000000     0.349000000
O    -2.177000000     4.999000000    -1.296000000
O    -2.809000000     2.020000000    -4.223000000
H    -2.360000000     2.864000000    -4.189000000
H    -3.369000000     2.078000000    -4.998000000
O    -4.590000000     6.251000000     1.506000000
H    -3.982000000     6.989000000     1.553000000
H    -4.087000000     5.553000000     1.087000000
O    -4.881000000     2.722000000    -5.601000000
H    -4.650000000     3.442000000    -5.014000000
H    -5.813000000     2.847000000    -5.779000000
O    -1.916000000     4.779000000    -3.930000000
H    -1.390000000     5.538000000    -4.184000000
H    -2.031000000     4.873000000    -2.984000000
O    -2.148000000     0.007000000    -2.321000000
H    -1.414000000     0.325000000    -1.794000000
H    -2.133000000     0.552000000    -3.107000000
O    -4.682000000     6.310000000    -1.452000000
H    -5.057000000     6.083000000    -0.601000000
H    -3.747000000     6.126000000    -1.358000000
O    -2.683000000     8.198000000     1.170000000
H    -2.942000000     8.983000000     0.688000000
H    -2.151000000     8.526000000     1.895000000
O    -4.721000000     9.098000000    -2.343000000
H    -5.667000000     9.200000000    -2.443000000
H    -4.591000000     8.156000000    -2.233000000
O     0.470000000     8.702000000     0.544000000
H     0.023000000     7.964000000     0.129000000
H     1.400000000     8.487000000     0.476000000
O    -3.665000000     6.729000000    -5.777000000
H    -3.980000000     5.956000000    -5.309000000
H    -2.949000000     7.062000000    -5.235000000
O    -8.477000000     3.019000000     0.100000000
H    -7.575000000     3.272000000    -0.095000000
H    -8.566000000     2.141000000    -0.271000000
O    -1.661000000     7.642000000    -4.025000000
H    -1.729000000     8.565000000    -4.268000000
H    -1.786000000     7.634000000    -3.075000000
O    -6.129000000     7.700000000     3.892000000
H    -5.744000000     8.569000000     3.777000000
H    -5.785000000     7.187000000     3.161000000
O    -5.157000000     4.673000000    -3.903000000
H    -6.114000000     4.682000000    -3.922000000
H    -4.929000000     5.133000000    -3.094000000
O    -7.742000000     6.652000000    -1.556000000
H    -7.432000000     7.228000000    -2.255000000
H    -7.079000000     5.964000000    -1.500000000
O    -5.938000000     3.391000000    -0.626000000
H    -5.127000000     3.640000000    -0.182000000
H    -5.658000000     2.787000000    -1.314000000
O    -6.421000000     9.055000000     0.914000000
H    -6.406000000     8.106000000     0.795000000
H    -5.704000000     9.231000000     1.523000000
O    -1.569000000     7.622000000    -1.229000000
H    -1.587000000     6.666000000    -1.256000000
H    -2.049000000     7.849000000    -0.433000000
O    -4.655000000     1.313000000    -1.976000000
H    -4.084000000     0.833000000    -1.377000000
H    -4.056000000     1.826000000    -2.518000000
