215
-1437.50442
C    -2.016000000    -0.889000000    -4.774000000
H    -1.408000000    -1.788000000    -4.828000000
C    -1.384000000     0.279000000    -4.277000000
C    -2.113000000     1.443000000    -4.223000000
H    -1.688000000     2.368000000    -3.844000000
C     0.176000000     0.180000000    -4.066000000
O     0.883000000    -0.848000000    -4.822000000
H     0.271000000     0.052000000    -2.977000000
O     0.742000000     1.451000000    -4.499000000
C     1.594000000     2.020000000    -3.657000000
C     1.222000000     3.184000000    -3.013000000
H     0.245000000     3.641000000    -3.149000000
C     1.978000000     3.718000000    -2.001000000
O     1.391000000     4.662000000    -1.256000000
C     3.257000000     3.188000000    -1.765000000
C     4.105000000     3.742000000    -0.569000000
H     5.173000000     3.623000000    -0.763000000
C     3.757000000     3.076000000     0.717000000
C     4.412000000     1.915000000     1.086000000
H     5.149000000     1.544000000     0.379000000
H     3.912000000     4.814000000    -0.492000000
C     3.674000000     2.088000000    -2.515000000
H     4.656000000     1.679000000    -2.295000000
C     2.911000000     1.582000000    -3.541000000
C     3.443000000     0.418000000    -4.358000000
H     4.535000000     0.438000000    -4.380000000
H     3.092000000     0.552000000    -5.383000000
C     3.019000000    -0.924000000    -3.765000000
C     3.806000000    -1.440000000    -2.728000000
H     4.736000000    -1.051000000    -2.323000000
C     1.857000000    -1.520000000    -4.154000000
C     1.459000000    -2.728000000    -3.488000000
H     0.521000000    -3.235000000    -3.698000000
C     2.295000000    -3.313000000    -2.570000000
O     1.804000000    -4.344000000    -1.752000000
C     1.245000000    -4.014000000    -0.468000000
C    -0.123000000    -4.590000000    -0.246000000
C    -0.533000000    -5.020000000     1.002000000
H     0.175000000    -5.078000000     1.825000000
C    -1.116000000    -4.604000000    -1.281000000
H    -0.932000000    -4.184000000    -2.267000000
O     2.165000000    -4.557000000     0.574000000
H     1.279000000    -2.916000000    -0.423000000
C     3.479000000    -2.673000000    -2.143000000
C     4.312000000    -3.271000000    -1.084000000
H     5.377000000    -3.057000000    -1.202000000
H     4.346000000    -4.360000000    -1.161000000
C     3.929000000    -2.934000000     0.370000000
C     4.648000000    -1.889000000     0.966000000
H     5.356000000    -1.438000000     0.275000000
C     2.957000000    -3.602000000     1.124000000
C     2.483000000    -3.050000000     2.334000000
H     1.546000000    -3.389000000     2.769000000
C     3.236000000    -1.987000000     2.879000000
O     2.774000000    -1.405000000     4.008000000
C     1.786000000    -0.358000000     3.896000000
C     0.505000000    -0.568000000     4.708000000
C     0.081000000    -1.721000000     5.416000000
H     0.701000000    -2.590000000     5.623000000
C    -0.485000000     0.481000000     4.558000000
H    -0.196000000     1.338000000     3.954000000
O     2.464000000     0.839000000     4.040000000
H     1.513000000    -0.341000000     2.830000000
C     4.319000000    -1.397000000     2.188000000
C     4.893000000     0.007000000     2.555000000
H     5.942000000     0.107000000     2.271000000
H     4.868000000     0.059000000     3.646000000
C     4.007000000     1.169000000     2.170000000
C     2.914000000     1.583000000     2.928000000
C     2.275000000     2.822000000     2.625000000
H     1.453000000     3.177000000     3.242000000
C     2.713000000     3.589000000     1.533000000
O     1.963000000     4.616000000     1.065000000
C     0.938000000     4.245000000     0.138000000
H     0.978000000     3.147000000     0.086000000
C    -0.405000000     4.869000000     0.440000000
C    -1.252000000     5.269000000    -0.585000000
H    -0.921000000     5.057000000    -1.598000000
C    -0.757000000     5.174000000     1.752000000
H    -0.169000000     4.854000000     2.608000000
C    -1.978000000     5.807000000     2.010000000
O    -2.391000000     5.927000000     3.363000000
C    -2.805000000     6.169000000     1.005000000
H    -3.788000000     6.569000000     1.236000000
C    -2.439000000     5.934000000    -0.317000000
O    -3.220000000     6.410000000    -1.347000000
C    -3.247000000     5.819000000    -2.596000000
C    -3.725000000     4.509000000    -2.878000000
H    -4.175000000     3.990000000    -2.035000000
C    -2.551000000     6.472000000    -3.620000000
H    -2.166000000     7.441000000    -3.313000000
C    -2.338000000     5.934000000    -4.826000000
H    -1.851000000     6.429000000    -5.662000000
C    -2.933000000     4.702000000    -5.106000000
H    -2.833000000     4.246000000    -6.087000000
C    -3.598000000     3.952000000    -4.134000000
O    -4.145000000     2.615000000    -4.453000000
C    -3.483000000     1.424000000    -4.436000000
C    -4.133000000     0.270000000    -4.795000000
H    -5.211000000     0.265000000    -4.936000000
C    -3.435000000    -0.914000000    -4.996000000
O    -4.133000000    -2.068000000    -5.373000000
C    -3.631000000    -3.307000000    -5.096000000
C    -3.610000000    -3.686000000    -3.768000000
H    -3.863000000    -2.956000000    -3.003000000
C    -3.205000000    -4.163000000    -6.106000000
H    -3.271000000    -3.842000000    -7.142000000
C    -2.821000000    -5.453000000    -5.824000000
H    -2.538000000    -6.141000000    -6.617000000
C    -2.765000000    -5.885000000    -4.477000000
H    -2.464000000    -6.882000000    -4.165000000
C    -3.046000000    -4.991000000    -3.466000000
O    -3.211000000    -5.471000000    -2.159000000
C    -2.332000000    -5.258000000    -1.130000000
C    -2.764000000    -5.524000000     0.140000000
H    -3.762000000    -5.918000000     0.312000000
C    -1.905000000    -5.222000000     1.241000000
O    -2.357000000    -5.593000000     2.438000000
C    -1.749000000    -5.470000000     3.662000000
C    -1.703000000    -4.276000000     4.349000000
H    -2.110000000    -3.384000000     3.879000000
C    -1.355000000    -6.597000000     4.338000000
H    -1.217000000    -7.502000000     3.753000000
C    -0.771000000    -6.529000000     5.605000000
H    -0.368000000    -7.430000000     6.060000000
C    -0.873000000    -5.352000000     6.339000000
H    -0.646000000    -5.314000000     7.402000000
C    -1.396000000    -4.216000000     5.714000000
O    -1.580000000    -3.074000000     6.462000000
C    -1.167000000    -1.833000000     5.974000000
C    -2.107000000    -0.752000000     5.924000000
H    -3.089000000    -0.860000000     6.379000000
C    -1.746000000     0.424000000     5.207000000
O    -2.585000000     1.512000000     5.235000000
C    -2.101000000     2.796000000     5.303000000
C    -1.296000000     3.283000000     6.326000000
H    -1.094000000     2.614000000     7.158000000
C    -0.897000000     4.572000000     6.455000000
H    -0.410000000     4.959000000     7.346000000
C    -1.243000000     5.415000000     5.380000000
H    -0.883000000     6.439000000     5.427000000
C    -2.061000000     4.994000000     4.384000000
C    -2.457000000     3.676000000     4.287000000
H    -3.141000000     3.276000000     3.543000000
C    -1.962000000    -1.685000000     0.590000000
H    -2.324000000    -2.601000000     1.052000000
C    -0.660000000    -1.187000000     0.830000000
H    -0.049000000    -1.729000000     1.547000000
C    -0.178000000    -0.161000000     0.043000000
H     0.871000000     0.255000000     0.012000000
C    -1.048000000     0.559000000    -0.759000000
H    -0.713000000     1.427000000    -1.321000000
C    -2.340000000     0.136000000    -1.065000000
H    -3.062000000     0.664000000    -1.683000000
C    -2.798000000    -1.042000000    -0.365000000
C    -4.224000000    -1.500000000    -0.507000000
O    -5.065000000    -0.819000000    -1.041000000
O    -4.575000000    -2.614000000    -0.129000000
O    -8.901000000    -3.302000000    -2.260000000
H    -9.421000000    -3.733000000    -2.939000000
H    -8.016000000    -3.647000000    -2.381000000
O    -7.432000000    -1.216000000     3.292000000
H    -8.098000000    -1.818000000     2.960000000
H    -7.884000000    -0.707000000     3.965000000
O    -6.177000000    -4.594000000    -1.324000000
H    -5.720000000    -3.854000000    -0.925000000
H    -5.499000000    -5.059000000    -1.815000000
O    -7.833000000     3.799000000    -2.877000000
H    -7.793000000     4.700000000    -2.558000000
H    -7.184000000     3.330000000    -2.351000000
O    -7.303000000    -5.889000000     1.033000000
H    -6.833000000    -5.055000000     1.022000000
H    -6.907000000    -6.378000000     1.754000000
O    -5.974000000     1.686000000    -1.052000000
H    -5.475000000     0.871000000    -1.114000000
H    -5.601000000     2.138000000    -0.295000000
O    -6.352000000    -1.501000000    -3.379000000
H    -5.759000000    -1.091000000    -2.749000000
H    -7.191000000    -1.062000000    -3.240000000
O    -5.774000000     1.881000000     3.487000000
H    -6.429000000     2.329000000     2.952000000
H    -5.788000000     0.976000000     3.176000000
O    -4.155000000    -0.462000000     3.848000000
H    -4.236000000     0.024000000     4.669000000
H    -4.734000000    -1.216000000     3.958000000
O    -5.058000000    -5.254000000     3.349000000
H    -5.287000000    -4.508000000     2.795000000
H    -4.113000000    -5.356000000     3.236000000
O    -7.183000000    -4.960000000    -4.761000000
H    -7.782000000    -5.101000000    -5.495000000
H    -7.152000000    -4.010000000    -4.656000000
O    -8.495000000     1.452000000    -0.304000000
H    -8.397000000     0.600000000     0.122000000
H    -7.598000000     1.759000000    -0.435000000
O    -9.373000000    -0.593000000    -3.007000000
H    -8.825000000    -1.027000000    -2.353000000
H    -9.932000000    -1.290000000    -3.350000000
O    -2.781000000     1.249000000     1.961000000
H    -2.291000000     0.462000000     1.721000000
H    -3.261000000     1.000000000     2.751000000
O    -7.540000000    -1.204000000    -0.065000000
H    -6.612000000    -1.202000000    -0.300000000
H    -7.796000000    -2.125000000    -0.109000000
O    -6.078000000    -3.267000000     1.907000000
H    -6.746000000    -2.587000000     1.989000000
H    -5.647000000    -3.080000000     1.073000000
O    -9.738000000    -2.496000000     1.979000000
H   -10.449000000    -2.534000000     2.619000000
H   -10.062000000    -1.909000000     1.296000000
O    -3.936000000     3.282000000     0.571000000
H    -3.113000000     3.768000000     0.535000000
H    -3.699000000     2.437000000     0.954000000
O    -7.684000000    -1.410000000    -6.092000000
H    -7.062000000    -1.479000000    -5.368000000
H    -7.179000000    -1.658000000    -6.866000000
