215
-1445.14558
C    -0.940000000     4.066000000     3.450000000
H     0.146000000     4.105000000     3.483000000
C    -1.422000000     2.816000000     3.803000000
C    -2.786000000     2.664000000     3.757000000
H    -3.223000000     1.722000000     4.078000000
C    -0.617000000     1.642000000     4.025000000
O     0.678000000     2.026000000     4.647000000
H    -0.452000000     1.373000000     2.971000000
O    -1.241000000     0.529000000     4.732000000
C    -0.933000000    -0.735000000     4.471000000
C    -1.955000000    -1.419000000     3.810000000
H    -2.860000000    -0.953000000     3.430000000
C    -1.717000000    -2.725000000     3.339000000
O    -2.645000000    -3.245000000     2.415000000
C    -0.507000000    -3.370000000     3.515000000
C    -0.294000000    -4.684000000     2.888000000
H     0.329000000    -5.276000000     3.561000000
C     0.247000000    -4.699000000     1.451000000
C     1.673000000    -4.739000000     1.157000000
H     2.399000000    -4.723000000     1.966000000
H    -1.177000000    -5.325000000     2.919000000
C     0.571000000    -2.657000000     4.130000000
H     1.577000000    -3.066000000     4.185000000
C     0.298000000    -1.352000000     4.660000000
C     1.419000000    -0.666000000     5.420000000
H     1.982000000    -1.483000000     5.876000000
H     1.091000000    -0.084000000     6.284000000
C     2.273000000     0.164000000     4.413000000
C     3.298000000    -0.409000000     3.715000000
H     3.540000000    -1.447000000     3.928000000
C     1.819000000     1.453000000     4.157000000
C     2.470000000     2.253000000     3.193000000
H     2.050000000     3.215000000     2.910000000
C     3.482000000     1.693000000     2.453000000
O     3.968000000     2.345000000     1.378000000
C     3.444000000     2.010000000     0.153000000
C     3.057000000     3.184000000    -0.637000000
C     2.882000000     2.966000000    -2.005000000
H     3.002000000     1.959000000    -2.397000000
C     2.676000000     4.426000000    -0.047000000
H     2.730000000     4.612000000     1.022000000
O     4.376000000     1.128000000    -0.485000000
H     2.522000000     1.420000000     0.260000000
C     3.925000000     0.371000000     2.740000000
C     5.037000000    -0.262000000     2.014000000
H     5.394000000    -1.067000000     2.660000000
H     5.979000000     0.237000000     1.777000000
C     4.579000000    -0.962000000     0.751000000
C     4.417000000    -2.342000000     0.679000000
H     4.412000000    -2.904000000     1.610000000
C     4.267000000    -0.273000000    -0.426000000
C     3.951000000    -0.861000000    -1.643000000
H     3.698000000    -0.247000000    -2.504000000
C     3.811000000    -2.200000000    -1.656000000
O     3.344000000    -2.760000000    -2.808000000
C     1.911000000    -2.943000000    -2.827000000
C     1.267000000    -2.500000000    -4.231000000
C     1.843000000    -1.484000000    -4.976000000
H     2.798000000    -1.118000000    -4.608000000
C     0.125000000    -3.136000000    -4.730000000
H    -0.421000000    -3.871000000    -4.144000000
O     1.540000000    -4.282000000    -2.509000000
H     1.491000000    -2.277000000    -2.060000000
C     3.969000000    -3.000000000    -0.501000000
C     3.552000000    -4.459000000    -0.431000000
H     4.137000000    -4.923000000     0.366000000
H     3.760000000    -4.923000000    -1.397000000
C     2.055000000    -4.615000000    -0.171000000
C     1.132000000    -4.582000000    -1.198000000
C    -0.221000000    -4.626000000    -0.963000000
H    -0.873000000    -4.723000000    -1.828000000
C    -0.634000000    -4.627000000     0.338000000
O    -1.945000000    -4.492000000     0.615000000
C    -2.349000000    -3.103000000     0.977000000
H    -1.507000000    -2.416000000     0.803000000
C    -3.572000000    -2.720000000     0.241000000
C    -4.423000000    -1.805000000     0.833000000
H    -4.197000000    -1.487000000     1.848000000
C    -3.732000000    -3.071000000    -1.114000000
H    -3.018000000    -3.777000000    -1.531000000
C    -4.914000000    -2.604000000    -1.786000000
O    -5.236000000    -2.847000000    -3.113000000
C    -5.849000000    -1.765000000    -1.084000000
H    -6.727000000    -1.426000000    -1.627000000
C    -5.570000000    -1.359000000     0.190000000
O    -6.386000000    -0.385000000     0.732000000
C    -6.222000000     0.287000000     1.898000000
C    -5.581000000     1.503000000     2.036000000
H    -5.144000000     2.020000000     1.186000000
C    -6.982000000    -0.282000000     2.909000000
H    -7.480000000    -1.243000000     2.815000000
C    -7.057000000     0.331000000     4.159000000
H    -7.572000000    -0.160000000     4.981000000
C    -6.366000000     1.572000000     4.306000000
H    -6.229000000     2.082000000     5.256000000
C    -5.593000000     2.165000000     3.268000000
O    -5.026000000     3.455000000     3.435000000
C    -3.642000000     3.680000000     3.414000000
C    -3.164000000     4.992000000     3.121000000
H    -3.777000000     5.846000000     2.847000000
C    -1.783000000     5.153000000     3.126000000
O    -1.385000000     6.431000000     2.844000000
C    -0.152000000     6.857000000     2.503000000
C     0.343000000     6.386000000     1.266000000
H    -0.235000000     5.680000000     0.674000000
C     0.535000000     7.731000000     3.232000000
H     0.383000000     8.133000000     4.230000000
C     1.774000000     8.165000000     2.745000000
H     2.299000000     8.996000000     3.209000000
C     2.274000000     7.787000000     1.466000000
H     3.209000000     8.149000000     1.046000000
C     1.535000000     6.930000000     0.771000000
O     1.946000000     6.678000000    -0.519000000
C     2.221000000     5.412000000    -0.913000000
C     2.262000000     5.252000000    -2.296000000
H     2.019000000     6.118000000    -2.906000000
C     2.421000000     3.979000000    -2.843000000
O     2.155000000     3.814000000    -4.137000000
C     2.810000000     2.858000000    -4.870000000
C     2.009000000     1.814000000    -5.371000000
H     0.952000000     1.801000000    -5.117000000
C     4.201000000     2.937000000    -5.097000000
H     4.627000000     3.803000000    -4.597000000
C     4.701000000     2.074000000    -6.052000000
H     5.699000000     2.126000000    -6.479000000
C     3.958000000     1.048000000    -6.524000000
H     4.250000000     0.349000000    -7.303000000
C     2.610000000     0.911000000    -6.206000000
O     1.887000000    -0.060000000    -6.887000000
C     1.269000000    -1.020000000    -6.125000000
C     0.073000000    -1.520000000    -6.571000000
H    -0.246000000    -1.077000000    -7.511000000
C    -0.514000000    -2.600000000    -5.889000000
O    -1.684000000    -3.152000000    -6.368000000
C    -2.703000000    -3.764000000    -5.614000000
C    -2.858000000    -5.149000000    -5.682000000
H    -2.237000000    -5.755000000    -6.337000000
C    -3.810000000    -5.741000000    -4.835000000
H    -3.866000000    -6.817000000    -4.693000000
C    -4.613000000    -5.037000000    -3.986000000
H    -5.269000000    -5.536000000    -3.277000000
C    -4.461000000    -3.606000000    -3.948000000
C    -3.480000000    -2.951000000    -4.777000000
H    -3.303000000    -1.879000000    -4.782000000
C    -0.590000000     1.327000000    -1.984000000
H    -0.554000000     1.885000000    -2.916000000
C     0.479000000     0.479000000    -1.673000000
H     1.201000000     0.224000000    -2.444000000
C     0.531000000    -0.113000000    -0.428000000
H     1.389000000    -0.786000000    -0.219000000
C    -0.459000000     0.145000000     0.468000000
H    -0.356000000    -0.418000000     1.393000000
C    -1.519000000     0.908000000     0.157000000
H    -2.239000000     1.089000000     0.950000000
C    -1.537000000     1.680000000    -1.021000000
C    -2.457000000     2.827000000    -1.318000000
O    -3.524000000     2.901000000    -0.742000000
O    -2.163000000     3.606000000    -2.191000000
O    -4.282000000     3.303000000    -7.299000000
H    -5.081000000     3.831000000    -7.283000000
H    -4.372000000     2.711000000    -6.552000000
O    -4.244000000     5.069000000    -3.237000000
H    -3.588000000     4.549000000    -2.772000000
H    -4.987000000     4.476000000    -3.345000000
O    -5.244000000     7.811000000     1.034000000
H    -4.850000000     6.939000000     1.007000000
H    -5.668000000     7.909000000     0.182000000
O    -2.537000000     1.144000000    -5.604000000
H    -3.056000000     0.849000000    -6.352000000
H    -3.130000000     1.067000000    -4.856000000
O    -0.819000000     4.674000000    -4.287000000
H    -1.363000000     3.996000000    -3.886000000
H    -0.259000000     4.984000000    -3.576000000
O    -6.224000000     2.518000000    -1.167000000
H    -6.510000000     3.075000000    -1.890000000
H    -5.284000000     2.681000000    -1.096000000
O    -8.047000000     3.904000000     0.702000000
H    -8.223000000     4.697000000     0.195000000
H    -7.932000000     3.219000000     0.044000000
O    -4.969000000     5.109000000     0.361000000
H    -5.808000000     4.683000000     0.540000000
H    -4.439000000     4.430000000    -0.054000000
O    -0.161000000     4.457000000    -7.050000000
H    -0.482000000     4.768000000    -6.203000000
H    -0.284000000     3.508000000    -7.019000000
O    -0.356000000     1.996000000    -7.080000000
H    -1.138000000     1.762000000    -6.578000000
H     0.216000000     1.233000000    -7.001000000
O    -3.970000000     9.006000000    -3.591000000
H    -3.409000000     8.258000000    -3.798000000
H    -3.675000000     9.296000000    -2.729000000
O    -5.738000000     7.808000000    -1.606000000
H    -5.808000000     6.906000000    -1.918000000
H    -5.046000000     8.194000000    -2.143000000
O    -1.845000000     6.156000000    -1.805000000
H    -1.927000000     5.219000000    -1.987000000
H    -2.537000000     6.338000000    -1.170000000
O    -5.594000000     1.117000000    -6.157000000
H    -5.101000000     0.953000000    -6.960000000
H    -5.885000000     0.250000000    -5.872000000
O    -0.200000000     8.292000000    -2.421000000
H    -0.172000000     8.608000000    -1.518000000
H    -0.671000000     7.460000000    -2.369000000
O    -6.989000000     4.105000000    -3.505000000
H    -6.869000000     4.660000000    -4.275000000
H    -7.572000000     3.406000000    -3.802000000
O    -2.653000000     6.681000000    -4.917000000
H    -1.863000000     6.252000000    -4.587000000
H    -3.374000000     6.194000000    -4.518000000
O    -4.317000000     0.844000000    -3.121000000
H    -3.547000000     1.040000000    -2.587000000
H    -5.033000000     0.769000000    -2.491000000
O    -8.950000000     1.393000000    -1.276000000
H    -8.234000000     1.776000000    -1.782000000
H    -8.697000000     0.478000000    -1.157000000
