215
-1439.37484
C    -1.930000000     3.524000000     3.083000000
H    -0.896000000     3.861000000     3.093000000
C    -2.277000000     2.248000000     3.508000000
C    -3.541000000     1.741000000     3.404000000
H    -3.902000000     0.736000000     3.607000000
C    -1.110000000     1.276000000     3.904000000
O    -0.098000000     1.744000000     4.796000000
H    -0.652000000     0.826000000     3.010000000
O    -1.618000000     0.074000000     4.618000000
C    -1.164000000    -1.206000000     4.328000000
C    -2.004000000    -2.019000000     3.567000000
H    -2.939000000    -1.592000000     3.213000000
C    -1.577000000    -3.184000000     3.068000000
O    -2.464000000    -3.879000000     2.284000000
C    -0.281000000    -3.597000000     3.281000000
C     0.203000000    -4.893000000     2.690000000
H     0.991000000    -5.233000000     3.366000000
C     0.805000000    -4.689000000     1.288000000
C     2.156000000    -4.507000000     1.091000000
H     2.789000000    -4.549000000     1.974000000
H    -0.593000000    -5.635000000     2.782000000
C     0.612000000    -2.826000000     4.093000000
H     1.622000000    -3.170000000     4.300000000
C     0.128000000    -1.644000000     4.586000000
C     1.055000000    -0.776000000     5.456000000
H     1.704000000    -1.441000000     6.029000000
H     0.509000000    -0.332000000     6.292000000
C     1.792000000     0.304000000     4.673000000
C     3.104000000     0.094000000     4.179000000
H     3.651000000    -0.816000000     4.415000000
C     1.155000000     1.465000000     4.362000000
C     1.736000000     2.347000000     3.449000000
H     1.208000000     3.240000000     3.124000000
C     2.968000000     2.096000000     2.884000000
O     3.397000000     2.987000000     1.901000000
C     3.280000000     2.679000000     0.495000000
C     2.967000000     3.894000000    -0.456000000
C     3.354000000     3.799000000    -1.828000000
H     3.941000000     3.016000000    -2.301000000
C     2.238000000     5.001000000    -0.023000000
H     1.863000000     5.040000000     0.997000000
O     4.572000000     2.091000000     0.023000000
H     2.440000000     1.985000000     0.346000000
C     3.649000000     0.894000000     3.172000000
C     4.946000000     0.567000000     2.495000000
H     5.619000000    -0.055000000     3.090000000
H     5.477000000     1.501000000     2.304000000
C     4.699000000    -0.152000000     1.178000000
C     4.642000000    -1.536000000     1.125000000
H     4.703000000    -2.146000000     2.022000000
C     4.498000000     0.672000000     0.016000000
C     4.250000000     0.002000000    -1.176000000
H     4.085000000     0.630000000    -2.049000000
C     4.165000000    -1.353000000    -1.283000000
O     3.715000000    -1.788000000    -2.514000000
C     2.303000000    -2.166000000    -2.590000000
C     1.701000000    -1.644000000    -3.893000000
C     2.173000000    -0.538000000    -4.556000000
H     2.990000000     0.051000000    -4.147000000
C     0.610000000    -2.260000000    -4.399000000
H     0.264000000    -3.191000000    -3.959000000
O     2.216000000    -3.575000000    -2.474000000
H     1.611000000    -1.789000000    -1.822000000
C     4.350000000    -2.167000000    -0.120000000
C     4.155000000    -3.707000000    -0.236000000
H     4.850000000    -4.290000000     0.371000000
H     4.502000000    -4.069000000    -1.206000000
C     2.691000000    -4.100000000    -0.152000000
C     1.842000000    -4.108000000    -1.236000000
C     0.500000000    -4.225000000    -1.045000000
H    -0.295000000    -4.051000000    -1.765000000
C    -0.052000000    -4.559000000     0.169000000
O    -1.323000000    -4.745000000     0.299000000
C    -2.248000000    -3.719000000     0.859000000
H    -1.760000000    -2.742000000     0.726000000
C    -3.496000000    -3.525000000     0.062000000
C    -4.566000000    -2.735000000     0.517000000
H    -4.586000000    -2.349000000     1.533000000
C    -3.504000000    -4.003000000    -1.240000000
H    -2.777000000    -4.745000000    -1.558000000
C    -4.537000000    -3.666000000    -2.108000000
O    -4.615000000    -4.302000000    -3.292000000
C    -5.697000000    -2.952000000    -1.627000000
H    -6.594000000    -2.828000000    -2.228000000
C    -5.667000000    -2.496000000    -0.308000000
O    -6.781000000    -1.890000000     0.297000000
C    -6.783000000    -1.196000000     1.460000000
C    -6.378000000     0.158000000     1.501000000
H    -6.159000000     0.650000000     0.557000000
C    -7.233000000    -1.751000000     2.680000000
H    -7.528000000    -2.797000000     2.686000000
C    -7.225000000    -1.029000000     3.893000000
H    -7.511000000    -1.518000000     4.820000000
C    -6.743000000     0.292000000     3.866000000
H    -6.824000000     0.832000000     4.806000000
C    -6.357000000     0.896000000     2.645000000
O    -5.893000000     2.185000000     2.635000000
C    -4.566000000     2.623000000     2.917000000
C    -4.214000000     3.963000000     2.616000000
H    -4.918000000     4.602000000     2.088000000
C    -2.890000000     4.343000000     2.541000000
O    -2.612000000     5.510000000     1.908000000
C    -1.415000000     6.280000000     1.999000000
C    -0.738000000     6.405000000     0.816000000
H    -1.289000000     5.997000000    -0.028000000
C    -0.992000000     6.865000000     3.186000000
H    -1.637000000     6.846000000     4.061000000
C     0.202000000     7.592000000     3.153000000
H     0.551000000     7.990000000     4.102000000
C     0.975000000     7.682000000     1.991000000
H     1.762000000     8.430000000     1.935000000
C     0.389000000     7.173000000     0.789000000
O     1.139000000     7.090000000    -0.413000000
C     1.769000000     5.966000000    -0.929000000
C     2.206000000     5.996000000    -2.232000000
H     1.888000000     6.848000000    -2.827000000
C     3.039000000     4.882000000    -2.667000000
O     3.646000000     4.944000000    -3.904000000
C     3.820000000     3.885000000    -4.792000000
C     2.739000000     3.032000000    -5.038000000
H     1.877000000     3.090000000    -4.378000000
C     5.052000000     3.653000000    -5.400000000
H     5.854000000     4.380000000    -5.306000000
C     5.192000000     2.600000000    -6.282000000
H     6.179000000     2.342000000    -6.658000000
C     4.139000000     1.713000000    -6.510000000
H     3.996000000     0.845000000    -7.149000000
C     2.910000000     1.954000000    -5.894000000
O     1.809000000     1.143000000    -6.244000000
C     1.415000000     0.014000000    -5.617000000
C     0.268000000    -0.587000000    -6.074000000
H    -0.389000000    -0.145000000    -6.818000000
C    -0.113000000    -1.754000000    -5.529000000
O    -1.231000000    -2.501000000    -6.044000000
C    -1.766000000    -3.576000000    -5.421000000
C    -1.169000000    -4.789000000    -5.558000000
H    -0.270000000    -4.775000000    -6.168000000
C    -1.822000000    -5.929000000    -4.984000000
H    -1.381000000    -6.912000000    -5.128000000
C    -3.015000000    -5.775000000    -4.285000000
H    -3.602000000    -6.599000000    -3.888000000
C    -3.525000000    -4.466000000    -4.123000000
C    -2.961000000    -3.386000000    -4.764000000
H    -3.516000000    -2.454000000    -4.830000000
C    -0.275000000     1.764000000    -0.879000000
H     0.325000000     2.456000000    -1.464000000
C     0.391000000     0.645000000    -0.391000000
H     1.429000000     0.420000000    -0.622000000
C    -0.361000000    -0.309000000     0.346000000
H     0.053000000    -1.272000000     0.626000000
C    -1.710000000    -0.079000000     0.521000000
H    -2.285000000    -0.833000000     1.052000000
C    -2.358000000     1.094000000     0.125000000
H    -3.422000000     1.299000000     0.214000000
C    -1.621000000     1.975000000    -0.668000000
C    -2.384000000     3.047000000    -1.400000000
O    -3.579000000     3.190000000    -1.317000000
O    -1.695000000     3.714000000    -2.233000000
O     0.142000000     4.895000000    -5.464000000
H    -0.463000000     4.173000000    -5.295000000
H     0.781000000     4.533000000    -6.077000000
O    -4.167000000     5.387000000    -0.268000000
H    -3.952000000     4.593000000    -0.758000000
H    -3.524000000     5.413000000     0.440000000
O    -4.406000000    -0.104000000    -3.043000000
H    -3.514000000    -0.224000000    -2.717000000
H    -4.294000000     0.203000000    -3.942000000
O    -6.740000000     5.808000000    -0.960000000
H    -6.662000000     6.401000000    -1.708000000
H    -5.849000000     5.491000000    -0.812000000
O    -3.642000000     0.874000000    -5.403000000
H    -3.364000000     0.462000000    -6.221000000
H    -4.369000000     1.443000000    -5.656000000
O    -3.972000000     4.952000000    -3.691000000
H    -4.430000000     4.122000000    -3.557000000
H    -3.318000000     4.980000000    -2.993000000
O    -4.945000000     7.949000000     0.887000000
H    -4.724000000     7.158000000     0.395000000
H    -4.138000000     8.463000000     0.891000000
O    -2.778000000     8.184000000    -4.774000000
H    -2.158000000     8.686000000    -4.244000000
H    -2.719000000     7.293000000    -4.430000000
O    -8.676000000     2.770000000    -1.183000000
H    -8.998000000     2.338000000    -1.974000000
H    -7.733000000     2.608000000    -1.188000000
O    -6.528000000    -1.302000000    -4.522000000
H    -5.983000000    -0.843000000    -3.882000000
H    -6.003000000    -1.308000000    -5.322000000
O    -1.606000000     2.883000000    -4.964000000
H    -1.563000000     3.163000000    -4.049000000
H    -2.186000000     2.122000000    -4.955000000
O    -5.843000000     6.750000000    -4.976000000
H    -5.287000000     6.344000000    -4.312000000
H    -6.411000000     7.343000000    -4.484000000
O    -4.681000000     5.304000000     5.098000000
H    -3.939000000     5.721000000     5.536000000
H    -4.356000000     5.096000000     4.222000000
O    -5.834000000     2.146000000    -1.918000000
H    -4.991000000     2.485000000    -1.618000000
H    -5.630000000     1.283000000    -2.280000000
O    -0.038000000     8.906000000    -3.419000000
H    -0.317000000     8.010000000    -3.232000000
H    -0.108000000     9.359000000    -2.579000000
O    -3.850000000     4.330000000    -6.351000000
H    -3.163000000     4.410000000    -7.013000000
H    -3.495000000     4.776000000    -5.582000000
O    -1.000000000     6.165000000    -3.312000000
H    -0.622000000     5.733000000    -4.077000000
H    -0.898000000     5.530000000    -2.603000000
O    -1.812000000    -0.693000000    -2.443000000
H    -1.154000000    -0.592000000    -3.131000000
H    -1.499000000    -0.137000000    -1.729000000
O    -5.916000000     2.343000000    -6.472000000
H    -5.368000000     3.109000000    -6.298000000
H    -6.806000000     2.637000000    -6.276000000
