215
-1447.98112
C     4.130000000    -2.174000000    -1.982000000
H     3.614000000    -3.088000000    -1.697000000
C     4.379000000    -1.065000000    -1.159000000
C     4.779000000     0.132000000    -1.681000000
H     4.900000000     0.923000000    -0.945000000
C     3.898000000    -1.174000000     0.283000000
O     4.059000000    -2.508000000     0.674000000
H     2.841000000    -0.897000000     0.157000000
O     4.698000000    -0.444000000     1.247000000
C     4.062000000     0.147000000     2.394000000
C     3.823000000     1.550000000     2.305000000
H     4.184000000     2.056000000     1.414000000
C     2.973000000     2.152000000     3.188000000
O     2.702000000     3.450000000     2.849000000
C     2.384000000     1.474000000     4.238000000
C     1.375000000     2.104000000     5.075000000
H     1.333000000     1.661000000     6.072000000
C    -0.066000000     2.086000000     4.540000000
C    -0.897000000     1.072000000     4.737000000
H    -0.625000000     0.196000000     5.321000000
H     1.700000000     3.133000000     5.246000000
C     2.605000000     0.111000000     4.374000000
H     2.150000000    -0.480000000     5.165000000
C     3.539000000    -0.584000000     3.514000000
C     3.865000000    -2.116000000     3.623000000
H     3.583000000    -2.371000000     4.646000000
H     4.889000000    -2.452000000     3.446000000
C     2.833000000    -2.872000000     2.794000000
C     1.673000000    -3.408000000     3.386000000
H     1.516000000    -3.330000000     4.459000000
C     3.021000000    -3.020000000     1.378000000
C     2.135000000    -3.702000000     0.635000000
H     2.417000000    -3.949000000    -0.386000000
C     0.956000000    -4.183000000     1.169000000
O     0.082000000    -4.870000000     0.343000000
C    -1.102000000    -4.168000000     0.003000000
C    -1.495000000    -4.517000000    -1.445000000
C    -2.760000000    -4.190000000    -1.965000000
H    -3.535000000    -3.867000000    -1.275000000
C    -0.561000000    -4.989000000    -2.364000000
H     0.427000000    -5.178000000    -1.953000000
O    -2.285000000    -4.395000000     0.870000000
H    -0.876000000    -3.092000000    -0.007000000
C     0.728000000    -4.020000000     2.570000000
C    -0.610000000    -4.384000000     3.231000000
H    -0.427000000    -4.429000000     4.307000000
H    -0.980000000    -5.378000000     2.970000000
C    -1.738000000    -3.415000000     3.020000000
C    -1.957000000    -2.389000000     3.945000000
H    -1.360000000    -2.341000000     4.852000000
C    -2.496000000    -3.475000000     1.838000000
C    -3.450000000    -2.484000000     1.640000000
H    -4.059000000    -2.402000000     0.743000000
C    -3.568000000    -1.338000000     2.474000000
O    -4.437000000    -0.298000000     2.096000000
C    -3.814000000     0.797000000     1.529000000
C    -4.448000000     1.331000000     0.311000000
C    -5.362000000     0.577000000    -0.519000000
H    -5.688000000    -0.436000000    -0.297000000
C    -4.045000000     2.628000000    -0.122000000
H    -3.181000000     3.143000000     0.289000000
O    -3.792000000     1.871000000     2.569000000
H    -2.772000000     0.491000000     1.358000000
C    -2.877000000    -1.337000000     3.683000000
C    -3.086000000    -0.157000000     4.631000000
H    -2.985000000    -0.503000000     5.662000000
H    -4.047000000     0.349000000     4.740000000
C    -2.171000000     0.965000000     4.130000000
C    -2.616000000     1.968000000     3.314000000
C    -1.785000000     3.060000000     3.062000000
H    -2.030000000     3.926000000     2.451000000
C    -0.477000000     3.073000000     3.617000000
O     0.384000000     4.051000000     3.229000000
C     1.424000000     3.691000000     2.240000000
H     1.101000000     2.782000000     1.711000000
C     1.471000000     4.687000000     1.114000000
C     2.592000000     4.733000000     0.304000000
H     3.391000000     4.006000000     0.421000000
C     0.429000000     5.605000000     0.899000000
H    -0.428000000     5.643000000     1.566000000
C     0.457000000     6.462000000    -0.202000000
O    -0.533000000     7.325000000    -0.462000000
C     1.548000000     6.462000000    -1.070000000
H     1.511000000     7.104000000    -1.946000000
C     2.585000000     5.567000000    -0.846000000
O     3.485000000     5.455000000    -1.918000000
C     4.579000000     4.547000000    -2.029000000
C     4.526000000     3.305000000    -2.679000000
H     3.598000000     2.993000000    -3.152000000
C     5.844000000     5.000000000    -1.552000000
H     5.941000000     5.970000000    -1.071000000
C     6.982000000     4.294000000    -1.782000000
H     7.926000000     4.679000000    -1.404000000
C     6.965000000     3.076000000    -2.501000000
H     7.849000000     2.489000000    -2.739000000
C     5.706000000     2.537000000    -2.818000000
O     5.720000000     1.346000000    -3.543000000
C     5.174000000     0.190000000    -3.003000000
C     4.898000000    -0.856000000    -3.915000000
H     5.238000000    -0.724000000    -4.939000000
C     4.404000000    -2.096000000    -3.407000000
O     4.441000000    -3.155000000    -4.244000000
C     3.654000000    -4.269000000    -4.146000000
C     2.221000000    -4.308000000    -4.313000000
H     1.677000000    -3.367000000    -4.284000000
C     4.343000000    -5.483000000    -3.957000000
H     5.395000000    -5.415000000    -3.696000000
C     3.655000000    -6.703000000    -3.996000000
H     4.215000000    -7.602000000    -3.753000000
C     2.316000000    -6.755000000    -4.249000000
H     1.789000000    -7.704000000    -4.314000000
C     1.539000000    -5.563000000    -4.323000000
O     0.169000000    -5.747000000    -4.534000000
C    -0.812000000    -5.148000000    -3.678000000
C    -2.057000000    -4.768000000    -4.179000000
H    -2.243000000    -4.756000000    -5.249000000
C    -3.058000000    -4.254000000    -3.326000000
O    -4.302000000    -3.880000000    -3.860000000
C    -5.344000000    -3.175000000    -3.226000000
C    -5.364000000    -1.815000000    -3.292000000
H    -4.512000000    -1.272000000    -3.693000000
C    -6.389000000    -3.875000000    -2.621000000
H    -6.402000000    -4.956000000    -2.511000000
C    -7.469000000    -3.178000000    -2.114000000
H    -8.290000000    -3.684000000    -1.614000000
C    -7.548000000    -1.800000000    -2.234000000
H    -8.510000000    -1.314000000    -2.097000000
C    -6.446000000    -1.054000000    -2.755000000
O    -6.374000000     0.314000000    -2.786000000
C    -5.712000000     1.066000000    -1.757000000
C    -5.417000000     2.393000000    -2.113000000
H    -5.680000000     2.663000000    -3.133000000
C    -4.486000000     3.093000000    -1.393000000
O    -4.111000000     4.311000000    -1.876000000
C    -3.671000000     5.375000000    -1.067000000
C    -4.539000000     6.069000000    -0.228000000
H    -5.586000000     5.787000000    -0.167000000
C    -4.038000000     7.147000000     0.542000000
H    -4.654000000     7.745000000     1.209000000
C    -2.693000000     7.529000000     0.439000000
H    -2.271000000     8.381000000     0.968000000
C    -1.889000000     6.888000000    -0.401000000
C    -2.388000000     5.900000000    -1.218000000
H    -1.737000000     5.489000000    -1.985000000
C    -0.915000000     0.560000000    -1.993000000
H    -1.869000000     0.209000000    -2.379000000
C    -0.344000000    -0.053000000    -0.860000000
H    -1.001000000    -0.734000000    -0.324000000
C     0.811000000     0.474000000    -0.244000000
H     1.105000000     0.143000000     0.720000000
C     1.505000000     1.431000000    -0.977000000
H     2.437000000     1.802000000    -0.560000000
C     1.116000000     1.929000000    -2.228000000
H     1.623000000     2.791000000    -2.656000000
C    -0.137000000     1.508000000    -2.758000000
C    -0.708000000     2.211000000    -4.012000000
O    -0.141000000     3.154000000    -4.572000000
O    -1.734000000     1.809000000    -4.500000000
O    -4.924000000     0.416000000    -7.995000000
H    -4.766000000     0.473000000    -7.053000000
H    -5.507000000     1.151000000    -8.186000000
O     4.038000000     2.694000000    -6.826000000
H     4.741000000     3.311000000    -6.626000000
H     4.194000000     2.439000000    -7.736000000
O    -3.398000000     4.345000000    -7.793000000
H    -2.854000000     3.661000000    -7.405000000
H    -4.220000000     3.905000000    -8.009000000
O     1.259000000     5.166000000    -8.780000000
H     0.801000000     5.524000000    -8.019000000
H     1.127000000     4.220000000    -8.715000000
O     0.019000000    -2.523000000    -8.579000000
H     0.739000000    -3.093000000    -8.307000000
H    -0.239000000    -2.066000000    -7.778000000
O    -4.308000000     3.293000000    -4.873000000
H    -3.672000000     2.592000000    -4.730000000
H    -3.814000000     4.099000000    -4.723000000
O    -5.375000000     0.685000000    -5.342000000
H    -5.605000000     0.370000000    -4.468000000
H    -5.300000000     1.634000000    -5.243000000
O    -2.223000000     4.757000000    -4.512000000
H    -1.616000000     4.070000000    -4.239000000
H    -1.868000000     5.076000000    -5.342000000
O    -1.612000000     2.523000000    -7.217000000
H    -0.844000000     3.082000000    -7.094000000
H    -1.785000000     2.159000000    -6.349000000
O     0.351000000    -0.956000000    -5.959000000
H     1.179000000    -1.384000000    -6.179000000
H     0.515000000    -0.025000000    -6.111000000
O     1.379000000     1.924000000    -6.360000000
H     2.280000000     2.244000000    -6.388000000
H     1.011000000     2.313000000    -5.566000000
O    -4.740000000     6.876000000    -3.559000000
H    -5.582000000     6.459000000    -3.745000000
H    -4.305000000     6.278000000    -2.953000000
O    -2.736000000     1.082000000    -9.670000000
H    -2.043000000     1.138000000    -9.013000000
H    -3.447000000     0.617000000    -9.229000000
O    -1.172000000     3.691000000    -9.892000000
H    -0.495000000     3.083000000    -9.598000000
H    -1.706000000     3.850000000    -9.113000000
O     1.324000000     5.482000000    -4.182000000
H     1.882000000     5.207000000    -3.455000000
H     0.773000000     4.721000000    -4.362000000
O     1.047000000     2.372000000    -9.017000000
H     1.487000000     1.622000000    -9.416000000
H     1.285000000     2.325000000    -8.091000000
O    -3.372000000    -2.570000000    -6.479000000
H    -3.168000000    -2.442000000    -5.552000000
H    -2.641000000    -2.163000000    -6.943000000
O    -2.121000000    -0.943000000    -4.743000000
H    -1.209000000    -1.088000000    -4.996000000
H    -2.222000000     0.009000000    -4.745000000
O     0.176000000     6.309000000    -6.473000000
H    -0.239000000     7.156000000    -6.309000000
H     0.656000000     6.117000000    -5.667000000
