215
-1464.32672
C    -1.473000000     4.004000000     4.051000000
H    -0.456000000     4.259000000     4.337000000
C    -1.916000000     2.636000000     4.025000000
C    -3.300000000     2.375000000     3.827000000
H    -3.694000000     1.386000000     3.607000000
C    -0.900000000     1.526000000     4.115000000
O     0.303000000     1.969000000     4.779000000
H    -0.614000000     1.249000000     3.090000000
O    -1.457000000     0.397000000     4.803000000
C    -1.215000000    -0.842000000     4.343000000
C    -2.172000000    -1.446000000     3.530000000
H    -3.191000000    -1.075000000     3.464000000
C    -1.807000000    -2.650000000     2.897000000
O    -2.688000000    -3.237000000     2.037000000
C    -0.610000000    -3.254000000     3.117000000
C    -0.391000000    -4.702000000     2.614000000
H     0.300000000    -5.209000000     3.291000000
C     0.232000000    -4.736000000     1.245000000
C     1.600000000    -4.619000000     1.122000000
H     2.226000000    -4.758000000     2.000000000
H    -1.346000000    -5.232000000     2.631000000
C     0.341000000    -2.601000000     3.923000000
H     1.275000000    -3.105000000     4.157000000
C     0.050000000    -1.389000000     4.549000000
C     1.120000000    -0.708000000     5.440000000
H     1.691000000    -1.572000000     5.786000000
H     0.561000000    -0.336000000     6.301000000
C     1.954000000     0.239000000     4.551000000
C     3.068000000    -0.256000000     3.955000000
H     3.271000000    -1.304000000     4.158000000
C     1.577000000     1.599000000     4.381000000
C     2.233000000     2.393000000     3.499000000
H     1.907000000     3.408000000     3.287000000
C     3.366000000     1.850000000     2.850000000
O     3.864000000     2.498000000     1.780000000
C     3.348000000     2.094000000     0.538000000
C     2.994000000     3.227000000    -0.368000000
C     2.923000000     3.033000000    -1.712000000
H     3.252000000     2.065000000    -2.081000000
C     2.374000000     4.344000000     0.225000000
H     2.313000000     4.399000000     1.309000000
O     4.317000000     1.270000000    -0.126000000
H     2.424000000     1.516000000     0.687000000
C     3.854000000     0.539000000     3.109000000
C     5.008000000    -0.039000000     2.406000000
H     5.506000000    -0.734000000     3.085000000
H     5.654000000     0.782000000     2.089000000
C     4.580000000    -0.831000000     1.119000000
C     4.525000000    -2.168000000     0.954000000
H     4.728000000    -2.806000000     1.810000000
C     4.327000000    -0.073000000    -0.061000000
C     4.035000000    -0.616000000    -1.270000000
H     3.762000000     0.030000000    -2.101000000
C     3.859000000    -1.976000000    -1.388000000
O     3.407000000    -2.526000000    -2.621000000
C     1.994000000    -2.767000000    -2.796000000
C     1.512000000    -2.305000000    -4.163000000
C     2.173000000    -1.249000000    -4.801000000
H     3.016000000    -0.703000000    -4.384000000
C     0.345000000    -2.891000000    -4.706000000
H    -0.174000000    -3.697000000    -4.193000000
O     1.782000000    -4.169000000    -2.542000000
H     1.464000000    -2.184000000    -2.028000000
C     4.125000000    -2.736000000    -0.236000000
C     3.698000000    -4.229000000    -0.317000000
H     4.115000000    -4.684000000     0.583000000
H     4.082000000    -4.646000000    -1.251000000
C     2.206000000    -4.460000000    -0.155000000
C     1.393000000    -4.447000000    -1.287000000
C     0.013000000    -4.623000000    -1.117000000
H    -0.592000000    -4.755000000    -2.011000000
C    -0.520000000    -4.676000000     0.119000000
O    -1.895000000    -4.412000000     0.172000000
C    -2.282000000    -3.179000000     0.632000000
H    -1.451000000    -2.463000000     0.555000000
C    -3.478000000    -2.667000000    -0.171000000
C    -4.156000000    -1.445000000     0.124000000
H    -3.954000000    -0.915000000     1.051000000
C    -3.683000000    -3.231000000    -1.437000000
H    -3.132000000    -4.109000000    -1.764000000
C    -4.704000000    -2.736000000    -2.246000000
O    -4.990000000    -3.311000000    -3.459000000
C    -5.354000000    -1.534000000    -1.971000000
H    -6.123000000    -1.174000000    -2.650000000
C    -5.029000000    -0.805000000    -0.725000000
O    -5.729000000     0.366000000    -0.291000000
C    -6.113000000     0.640000000     1.005000000
C    -5.683000000     1.858000000     1.562000000
H    -5.088000000     2.511000000     0.929000000
C    -6.649000000    -0.353000000     1.736000000
H    -7.008000000    -1.273000000     1.283000000
C    -6.931000000    -0.075000000     3.096000000
H    -7.477000000    -0.772000000     3.726000000
C    -6.659000000     1.141000000     3.667000000
H    -6.839000000     1.276000000     4.731000000
C    -6.006000000     2.047000000     2.933000000
O    -5.533000000     3.180000000     3.551000000
C    -4.174000000     3.444000000     3.743000000
C    -3.746000000     4.775000000     3.783000000
H    -4.433000000     5.615000000     3.728000000
C    -2.371000000     5.032000000     3.872000000
O    -1.863000000     6.276000000     3.830000000
C    -0.602000000     6.481000000     3.171000000
C    -0.375000000     6.212000000     1.788000000
H    -1.127000000     5.868000000     1.083000000
C     0.443000000     6.996000000     3.861000000
H     0.280000000     7.095000000     4.931000000
C     1.730000000     7.260000000     3.334000000
H     2.505000000     7.637000000     3.996000000
C     1.841000000     7.065000000     1.946000000
H     2.843000000     7.262000000     1.573000000
C     0.821000000     6.627000000     1.147000000
O     1.084000000     6.388000000    -0.156000000
C     1.863000000     5.332000000    -0.614000000
C     1.934000000     5.247000000    -1.990000000
H     1.543000000     5.978000000    -2.693000000
C     2.485000000     4.030000000    -2.535000000
O     2.373000000     3.915000000    -3.919000000
C     3.116000000     2.990000000    -4.629000000
C     2.447000000     2.001000000    -5.287000000
H     1.374000000     1.923000000    -5.131000000
C     4.555000000     3.076000000    -4.766000000
H     5.152000000     3.787000000    -4.200000000
C     5.193000000     2.205000000    -5.615000000
H     6.251000000     2.374000000    -5.797000000
C     4.471000000     1.298000000    -6.384000000
H     5.053000000     0.592000000    -6.971000000
C     3.131000000     1.180000000    -6.168000000
O     2.396000000     0.152000000    -6.768000000
C     1.677000000    -0.772000000    -6.053000000
C     0.491000000    -1.305000000    -6.581000000
H     0.156000000    -0.940000000    -7.548000000
C    -0.150000000    -2.360000000    -5.925000000
O    -1.283000000    -2.922000000    -6.536000000
C    -2.246000000    -3.698000000    -5.897000000
C    -2.362000000    -5.084000000    -6.214000000
H    -1.810000000    -5.567000000    -7.017000000
C    -3.381000000    -5.870000000    -5.627000000
H    -3.539000000    -6.899000000    -5.938000000
C    -4.195000000    -5.271000000    -4.701000000
H    -4.960000000    -5.815000000    -4.153000000
C    -4.033000000    -3.914000000    -4.315000000
C    -3.041000000    -3.160000000    -4.929000000
H    -3.043000000    -2.103000000    -4.677000000
C    -0.420000000     1.891000000    -2.224000000
H    -0.394000000     2.459000000    -3.150000000
C     0.488000000     0.859000000    -1.959000000
H     1.277000000     0.659000000    -2.679000000
C     0.554000000     0.285000000    -0.646000000
H     1.266000000    -0.488000000    -0.407000000
C    -0.424000000     0.619000000     0.305000000
H    -0.452000000     0.055000000     1.234000000
C    -1.394000000     1.595000000     0.060000000
H    -2.114000000     1.837000000     0.838000000
C    -1.322000000     2.283000000    -1.177000000
C    -2.303000000     3.461000000    -1.480000000
O    -3.393000000     3.555000000    -0.963000000
O    -1.850000000     4.401000000    -2.084000000
O    -8.466000000     0.343000000    -1.813000000
H    -8.856000000    -0.253000000    -1.174000000
H    -7.537000000     0.364000000    -1.585000000
O    -3.378000000     3.515000000    -4.784000000
H    -3.195000000     2.820000000    -5.416000000
H    -3.834000000     3.073000000    -4.068000000
O    -4.125000000     5.971000000    -3.423000000
H    -3.170000000     5.911000000    -3.464000000
H    -4.383000000     5.267000000    -2.828000000
O    -7.099000000     7.683000000     0.190000000
H    -6.156000000     7.674000000     0.025000000
H    -7.489000000     7.895000000    -0.658000000
O    -1.800000000     0.681000000    -5.658000000
H    -2.532000000     0.263000000    -6.112000000
H    -1.775000000     0.257000000    -4.801000000
O    -0.207000000     5.368000000    -4.527000000
H    -0.725000000     4.813000000    -3.943000000
H     0.694000000     5.263000000    -4.220000000
O    -4.734000000     1.954000000    -2.808000000
H    -5.607000000     2.313000000    -2.967000000
H    -4.426000000     2.409000000    -2.024000000
O    -7.505000000     5.212000000     1.298000000
H    -7.486000000     6.060000000     0.855000000
H    -6.592000000     4.925000000     1.306000000
O    -4.425000000     5.824000000    -0.189000000
H    -3.595000000     6.189000000    -0.496000000
H    -4.331000000     4.879000000    -0.311000000
O    -3.106000000     8.862000000    -1.081000000
H    -2.345000000     8.360000000    -1.373000000
H    -3.138000000     8.721000000    -0.135000000
O    -2.758000000     8.322000000     1.715000000
H    -2.873000000     8.692000000     2.590000000
H    -2.410000000     7.444000000     1.870000000
O    -0.320000000     2.250000000    -7.325000000
H    -0.759000000     1.860000000    -8.081000000
H    -0.847000000     1.976000000    -6.574000000
O    -5.476000000     8.424000000    -2.096000000
H    -4.632000000     8.756000000    -1.791000000
H    -5.274000000     7.571000000    -2.479000000
O    -3.069000000     8.736000000    -5.112000000
H    -2.547000000     8.322000000    -5.799000000
H    -3.150000000     8.064000000    -4.435000000
O    -1.378000000     6.914000000    -1.588000000
H    -0.471000000     7.134000000    -1.372000000
H    -1.369000000     5.967000000    -1.724000000
O    -5.127000000     5.105000000    -6.666000000
H    -4.599000000     5.888000000    -6.822000000
H    -4.891000000     4.830000000    -5.780000000
O    -6.607000000     3.774000000    -3.893000000
H    -6.563000000     3.182000000    -4.643000000
H    -7.332000000     4.365000000    -4.096000000
O    -1.856000000     6.705000000    -6.578000000
H    -1.216000000     6.668000000    -7.289000000
H    -1.481000000     6.157000000    -5.889000000
O    -2.644000000    -0.079000000    -3.203000000
H    -3.370000000     0.511000000    -3.002000000
H    -2.295000000    -0.330000000    -2.348000000
