215
-1469.91598
C    -0.601000000     3.971000000     2.799000000
H     0.442000000     3.947000000     2.493000000
C    -0.996000000     2.816000000     3.596000000
C    -2.369000000     2.746000000     3.915000000
H    -2.736000000     1.877000000     4.455000000
C    -0.076000000     1.660000000     3.920000000
O     1.273000000     2.076000000     4.148000000
H     0.039000000     1.098000000     2.981000000
O    -0.571000000     0.839000000     4.993000000
C    -0.366000000    -0.537000000     4.799000000
C    -1.447000000    -1.307000000     4.428000000
H    -2.406000000    -0.799000000     4.362000000
C    -1.308000000    -2.585000000     3.973000000
O    -2.354000000    -3.205000000     3.311000000
C    -0.065000000    -3.197000000     3.913000000
C     0.086000000    -4.625000000     3.277000000
H     1.018000000    -5.069000000     3.633000000
C     0.268000000    -4.620000000     1.756000000
C     1.546000000    -4.745000000     1.229000000
H     2.490000000    -4.705000000     1.766000000
H    -0.698000000    -5.284000000     3.655000000
C     1.019000000    -2.519000000     4.422000000
H     1.981000000    -3.006000000     4.281000000
C     0.916000000    -1.156000000     4.845000000
C     2.165000000    -0.430000000     5.129000000
H     2.880000000    -1.108000000     5.600000000
H     2.033000000     0.292000000     5.938000000
C     2.713000000     0.159000000     3.837000000
C     3.599000000    -0.544000000     3.039000000
H     3.884000000    -1.560000000     3.301000000
C     2.298000000     1.392000000     3.515000000
C     2.833000000     2.001000000     2.400000000
H     2.424000000     2.947000000     2.054000000
C     3.798000000     1.347000000     1.614000000
O     4.347000000     1.926000000     0.467000000
C     3.742000000     1.544000000    -0.754000000
C     3.302000000     2.752000000    -1.697000000
C     2.924000000     2.445000000    -3.006000000
H     2.828000000     1.397000000    -3.278000000
C     3.162000000     4.051000000    -1.162000000
H     3.295000000     4.238000000    -0.100000000
O     4.611000000     0.679000000    -1.464000000
H     2.882000000     0.910000000    -0.492000000
C     4.227000000     0.046000000     1.979000000
C     5.291000000    -0.612000000     1.163000000
H     5.735000000    -1.404000000     1.771000000
H     6.145000000     0.043000000     0.977000000
C     4.746000000    -1.359000000    -0.075000000
C     4.388000000    -2.681000000     0.142000000
H     4.652000000    -3.209000000     1.055000000
C     4.445000000    -0.695000000    -1.259000000
C     3.841000000    -1.364000000    -2.302000000
H     3.666000000    -0.887000000    -3.263000000
C     3.410000000    -2.664000000    -2.066000000
O     2.689000000    -3.280000000    -3.103000000
C     1.210000000    -3.285000000    -2.923000000
C     0.534000000    -2.696000000    -4.198000000
C     1.332000000    -2.175000000    -5.215000000
H     2.383000000    -2.435000000    -5.310000000
C    -0.757000000    -2.306000000    -4.020000000
H    -1.395000000    -2.659000000    -3.214000000
O     0.718000000    -4.599000000    -2.413000000
H     0.988000000    -2.652000000    -2.052000000
C     3.639000000    -3.314000000    -0.866000000
C     3.208000000    -4.747000000    -0.660000000
H     3.875000000    -5.132000000     0.114000000
H     3.267000000    -5.399000000    -1.534000000
C     1.743000000    -4.836000000    -0.173000000
C     0.587000000    -4.608000000    -1.033000000
C    -0.702000000    -4.571000000    -0.473000000
H    -1.453000000    -4.481000000    -1.254000000
C    -0.836000000    -4.578000000     0.869000000
O    -2.161000000    -4.365000000     1.305000000
C    -2.423000000    -3.078000000     1.893000000
H    -1.664000000    -2.349000000     1.571000000
C    -3.817000000    -2.587000000     1.396000000
C    -4.481000000    -1.763000000     2.276000000
H    -4.039000000    -1.600000000     3.255000000
C    -4.367000000    -2.878000000     0.131000000
H    -3.846000000    -3.495000000    -0.597000000
C    -5.572000000    -2.249000000    -0.260000000
O    -6.085000000    -2.432000000    -1.587000000
C    -6.237000000    -1.396000000     0.557000000
H    -7.129000000    -0.858000000     0.246000000
C    -5.733000000    -1.264000000     1.867000000
O    -6.482000000    -0.474000000     2.705000000
C    -5.968000000     0.365000000     3.674000000
C    -5.443000000     1.568000000     3.304000000
H    -5.254000000     1.643000000     2.236000000
C    -6.486000000     0.208000000     4.969000000
H    -7.044000000    -0.700000000     5.184000000
C    -6.249000000     1.145000000     5.941000000
H    -6.643000000     0.963000000     6.938000000
C    -5.486000000     2.271000000     5.654000000
H    -5.267000000     3.045000000     6.385000000
C    -5.184000000     2.512000000     4.317000000
O    -4.549000000     3.665000000     3.990000000
C    -3.235000000     3.803000000     3.570000000
C    -2.797000000     4.934000000     2.861000000
H    -3.352000000     5.837000000     2.623000000
C    -1.445000000     5.019000000     2.492000000
O    -1.106000000     6.213000000     1.878000000
C     0.215000000     6.437000000     1.441000000
C     0.689000000     6.018000000     0.202000000
H    -0.009000000     5.489000000    -0.442000000
C     0.982000000     7.091000000     2.365000000
H     0.554000000     7.385000000     3.321000000
C     2.275000000     7.507000000     1.914000000
H     2.950000000     8.099000000     2.527000000
C     2.714000000     7.204000000     0.621000000
H     3.694000000     7.540000000     0.291000000
C     1.897000000     6.566000000    -0.253000000
O     2.343000000     6.319000000    -1.521000000
C     2.706000000     5.072000000    -1.987000000
C     2.454000000     4.826000000    -3.306000000
H     1.868000000     5.527000000    -3.894000000
C     2.588000000     3.552000000    -3.899000000
O     2.173000000     3.402000000    -5.207000000
C     2.644000000     2.363000000    -5.981000000
C     1.870000000     1.271000000    -6.283000000
H     0.863000000     1.196000000    -5.881000000
C     3.893000000     2.458000000    -6.534000000
H     4.433000000     3.402000000    -6.513000000
C     4.429000000     1.465000000    -7.361000000
H     5.392000000     1.639000000    -7.835000000
C     3.695000000     0.320000000    -7.539000000
H     3.938000000    -0.474000000    -8.240000000
C     2.338000000     0.274000000    -7.060000000
O     1.548000000    -0.869000000    -7.197000000
C     0.709000000    -1.358000000    -6.198000000
C    -0.645000000    -1.096000000    -6.101000000
H    -1.059000000    -0.580000000    -6.963000000
C    -1.411000000    -1.581000000    -5.020000000
O    -2.781000000    -1.265000000    -4.880000000
C    -3.659000000    -2.179000000    -4.355000000
C    -4.003000000    -3.309000000    -5.079000000
H    -3.526000000    -3.386000000    -6.053000000
C    -4.979000000    -4.188000000    -4.610000000
H    -5.204000000    -5.109000000    -5.141000000
C    -5.587000000    -3.927000000    -3.413000000
H    -6.324000000    -4.612000000    -3.002000000
C    -5.276000000    -2.807000000    -2.684000000
C    -4.234000000    -1.933000000    -3.102000000
H    -3.966000000    -1.040000000    -2.543000000
C    -0.362000000     0.453000000    -1.949000000
H     0.142000000     0.652000000    -2.891000000
C     0.268000000    -0.129000000    -0.829000000
H     1.295000000    -0.486000000    -0.842000000
C    -0.431000000    -0.239000000     0.387000000
H     0.136000000    -0.580000000     1.269000000
C    -1.797000000     0.108000000     0.403000000
H    -2.237000000     0.158000000     1.396000000
C    -2.420000000     0.587000000    -0.752000000
H    -3.426000000     0.987000000    -0.654000000
C    -1.681000000     0.765000000    -1.942000000
C    -2.364000000     1.499000000    -3.110000000
O    -3.556000000     1.591000000    -3.167000000
O    -1.727000000     2.093000000    -3.955000000
O    -7.297000000     2.911000000    -1.028000000
H    -7.623000000     3.066000000    -1.915000000
H    -7.449000000     3.738000000    -0.570000000
O    -1.709000000     0.798000000    -9.160000000
H    -1.451000000     1.370000000    -8.438000000
H    -2.374000000     0.222000000    -8.784000000
O    -4.858000000    -0.501000000    -8.177000000
H    -4.826000000    -0.452000000    -7.221000000
H    -5.570000000     0.090000000    -8.423000000
O    -6.343000000     3.128000000    -5.319000000
H    -6.787000000     3.304000000    -4.489000000
H    -6.483000000     3.920000000    -5.838000000
O    -3.268000000     7.440000000    -5.762000000
H    -4.035000000     7.708000000    -6.269000000
H    -3.208000000     6.495000000    -5.901000000
O    -4.638000000     0.947000000    -5.445000000
H    -4.165000000     1.140000000    -4.636000000
H    -5.344000000     1.593000000    -5.470000000
O    -2.308000000     2.096000000    -6.511000000
H    -3.042000000     1.518000000    -6.302000000
H    -1.800000000     2.141000000    -5.701000000
O    -4.042000000     4.310000000    -3.004000000
H    -3.735000000     4.505000000    -3.890000000
H    -4.036000000     3.354000000    -2.954000000
O    -0.398000000     4.650000000    -6.155000000
H     0.176000000     3.888000000    -6.243000000
H    -0.917000000     4.470000000    -5.371000000
O    -1.049000000     5.088000000    -9.079000000
H    -0.814000000     4.717000000    -8.229000000
H    -2.005000000     5.043000000    -9.104000000
O    -2.671000000     6.917000000    -1.840000000
H    -2.756000000     6.170000000    -2.432000000
H    -2.002000000     7.469000000    -2.244000000
O    -8.121000000    -0.466000000    -2.194000000
H    -7.382000000     0.139000000    -2.255000000
H    -7.771000000    -1.227000000    -1.732000000
O     0.680000000     7.264000000    -5.705000000
H     0.331000000     6.380000000    -5.820000000
H    -0.056000000     7.769000000    -5.360000000
O    -6.132000000     5.974000000    -2.358000000
H    -6.263000000     5.814000000    -1.423000000
H    -5.268000000     5.607000000    -2.545000000
O    -0.930000000     4.476000000    -3.137000000
H    -1.448000000     3.755000000    -3.493000000
H    -0.433000000     4.083000000    -2.419000000
O    -6.875000000    -0.749000000    -4.818000000
H    -7.147000000    -0.797000000    -3.902000000
H    -6.099000000    -0.189000000    -4.808000000
O    -3.391000000     4.666000000    -5.898000000
H    -4.255000000     4.458000000    -6.254000000
H    -2.844000000     3.921000000    -6.148000000
O    -5.988000000     0.924000000    -2.337000000
H    -6.077000000     1.664000000    -1.736000000
H    -5.067000000     0.935000000    -2.596000000
O    -8.572000000     2.693000000    -3.385000000
H    -8.699000000     2.011000000    -2.726000000
H    -9.446000000     3.058000000    -3.525000000
