215
-1457.28520
C     4.471000000    -2.681000000    -1.651000000
H     3.943000000    -3.608000000    -1.444000000
C     4.704000000    -1.766000000    -0.616000000
C     5.271000000    -0.524000000    -0.930000000
H     5.315000000     0.221000000    -0.139000000
C     3.971000000    -1.883000000     0.707000000
O     3.781000000    -3.280000000     1.116000000
H     3.009000000    -1.402000000     0.477000000
O     4.653000000    -1.009000000     1.743000000
C     3.892000000    -0.321000000     2.659000000
C     3.831000000     1.060000000     2.435000000
H     4.428000000     1.550000000     1.670000000
C     2.821000000     1.817000000     3.080000000
O     2.719000000     3.212000000     2.814000000
C     1.994000000     1.143000000     4.024000000
C     1.114000000     1.855000000     4.964000000
H     1.037000000     1.266000000     5.881000000
C    -0.253000000     2.146000000     4.319000000
C    -1.353000000     1.317000000     4.722000000
H    -1.226000000     0.503000000     5.432000000
H     1.529000000     2.777000000     5.377000000
C     2.157000000    -0.247000000     4.257000000
H     1.678000000    -0.714000000     5.114000000
C     3.114000000    -1.003000000     3.666000000
C     3.329000000    -2.465000000     3.856000000
H     3.349000000    -2.807000000     4.893000000
H     4.326000000    -2.758000000     3.519000000
C     2.371000000    -3.303000000     3.020000000
C     1.017000000    -3.481000000     3.472000000
H     0.661000000    -3.113000000     4.431000000
C     2.655000000    -3.649000000     1.692000000
C     1.760000000    -4.330000000     0.857000000
H     2.025000000    -4.532000000    -0.177000000
C     0.461000000    -4.587000000     1.375000000
O    -0.426000000    -5.052000000     0.381000000
C    -1.441000000    -4.090000000    -0.078000000
C    -1.699000000    -4.146000000    -1.611000000
C    -3.022000000    -3.930000000    -2.202000000
H    -3.928000000    -3.709000000    -1.645000000
C    -0.617000000    -4.324000000    -2.442000000
H     0.350000000    -4.455000000    -1.964000000
O    -2.715000000    -4.076000000     0.695000000
H    -0.999000000    -3.100000000     0.109000000
C     0.106000000    -4.048000000     2.633000000
C    -1.269000000    -4.193000000     3.229000000
H    -1.199000000    -4.216000000     4.318000000
H    -1.665000000    -5.163000000     2.923000000
C    -2.336000000    -3.053000000     2.875000000
C    -2.547000000    -2.054000000     3.806000000
H    -2.042000000    -2.034000000     4.768000000
C    -2.996000000    -3.061000000     1.618000000
C    -3.885000000    -2.038000000     1.303000000
H    -4.348000000    -2.054000000     0.320000000
C    -3.993000000    -0.974000000     2.133000000
O    -4.631000000     0.113000000     1.594000000
C    -3.819000000     1.246000000     1.189000000
C    -4.409000000     1.770000000    -0.119000000
C    -5.158000000     0.964000000    -0.988000000
H    -5.435000000    -0.070000000    -0.801000000
C    -4.022000000     3.051000000    -0.504000000
H    -3.282000000     3.587000000     0.086000000
O    -3.782000000     2.245000000     2.236000000
H    -2.815000000     0.837000000     1.003000000
C    -3.326000000    -0.942000000     3.388000000
C    -3.545000000     0.228000000     4.354000000
H    -3.405000000    -0.164000000     5.364000000
H    -4.510000000     0.739000000     4.359000000
C    -2.534000000     1.272000000     4.036000000
C    -2.731000000     2.229000000     3.053000000
C    -1.824000000     3.263000000     2.832000000
H    -2.075000000     4.087000000     2.169000000
C    -0.520000000     3.171000000     3.392000000
O     0.480000000     4.016000000     2.938000000
C     1.521000000     3.446000000     2.020000000
H     1.105000000     2.519000000     1.598000000
C     1.752000000     4.405000000     0.878000000
C     2.946000000     4.357000000     0.164000000
H     3.749000000     3.676000000     0.435000000
C     0.813000000     5.331000000     0.487000000
H    -0.099000000     5.413000000     1.074000000
C     1.004000000     6.150000000    -0.637000000
O     0.043000000     7.128000000    -0.923000000
C     2.184000000     6.140000000    -1.343000000
H     2.206000000     6.764000000    -2.233000000
C     3.143000000     5.214000000    -0.923000000
O     4.280000000     5.166000000    -1.690000000
C     5.253000000     4.171000000    -1.422000000
C     5.298000000     3.010000000    -2.164000000
H     4.573000000     2.738000000    -2.927000000
C     6.271000000     4.401000000    -0.440000000
H     6.199000000     5.230000000     0.259000000
C     7.343000000     3.585000000    -0.272000000
H     7.984000000     3.689000000     0.600000000
C     7.319000000     2.384000000    -0.969000000
H     8.131000000     1.692000000    -0.759000000
C     6.353000000     2.071000000    -1.930000000
O     6.323000000     0.886000000    -2.653000000
C     5.679000000    -0.275000000    -2.273000000
C     5.578000000    -1.237000000    -3.256000000
H     5.840000000    -0.842000000    -4.234000000
C     4.911000000    -2.435000000    -2.985000000
O     4.717000000    -3.395000000    -3.992000000
C     3.820000000    -4.457000000    -4.013000000
C     2.508000000    -4.151000000    -4.321000000
H     2.291000000    -3.118000000    -4.582000000
C     4.255000000    -5.695000000    -3.641000000
H     5.287000000    -5.907000000    -3.373000000
C     3.245000000    -6.691000000    -3.564000000
H     3.476000000    -7.688000000    -3.198000000
C     1.943000000    -6.380000000    -3.897000000
H     1.175000000    -7.149000000    -3.866000000
C     1.555000000    -5.110000000    -4.325000000
O     0.291000000    -4.732000000    -4.764000000
C    -0.772000000    -4.449000000    -3.842000000
C    -2.049000000    -4.204000000    -4.394000000
H    -2.201000000    -4.090000000    -5.465000000
C    -3.160000000    -3.872000000    -3.613000000
O    -4.334000000    -3.429000000    -4.245000000
C    -5.403000000    -2.769000000    -3.561000000
C    -5.363000000    -1.350000000    -3.304000000
H    -4.517000000    -0.746000000    -3.621000000
C    -6.633000000    -3.416000000    -3.351000000
H    -6.618000000    -4.449000000    -3.692000000
C    -7.755000000    -2.699000000    -2.931000000
H    -8.697000000    -3.217000000    -2.772000000
C    -7.647000000    -1.284000000    -2.804000000
H    -8.471000000    -0.709000000    -2.388000000
C    -6.453000000    -0.610000000    -3.037000000
O    -6.422000000     0.770000000    -3.068000000
C    -5.557000000     1.493000000    -2.213000000
C    -5.208000000     2.773000000    -2.591000000
H    -5.434000000     3.140000000    -3.589000000
C    -4.394000000     3.514000000    -1.755000000
O    -3.972000000     4.795000000    -2.218000000
C    -3.305000000     5.740000000    -1.483000000
C    -4.023000000     6.413000000    -0.585000000
H    -5.047000000     6.048000000    -0.556000000
C    -3.399000000     7.280000000     0.357000000
H    -3.896000000     7.716000000     1.220000000
C    -2.032000000     7.577000000     0.201000000
H    -1.544000000     8.294000000     0.858000000
C    -1.326000000     6.865000000    -0.830000000
C    -1.883000000     5.900000000    -1.627000000
H    -1.325000000     5.339000000    -2.372000000
C    -1.228000000    -0.047000000    -0.990000000
H    -2.203000000    -0.482000000    -1.197000000
C    -0.597000000    -0.548000000     0.118000000
H    -1.061000000    -1.312000000     0.735000000
C     0.681000000    -0.029000000     0.398000000
H     1.248000000    -0.301000000     1.250000000
C     1.279000000     0.951000000    -0.436000000
H     2.244000000     1.336000000    -0.116000000
C     0.631000000     1.368000000    -1.613000000
H     1.002000000     2.278000000    -2.077000000
C    -0.668000000     0.884000000    -1.894000000
C    -1.417000000     1.397000000    -3.136000000
O    -0.862000000     2.341000000    -3.674000000
O    -2.359000000     0.724000000    -3.623000000
O     2.802000000     2.831000000    -5.100000000
H     3.494000000     3.489000000    -5.045000000
H     2.894000000     2.459000000    -5.977000000
O    -2.178000000     4.235000000    -8.281000000
H    -2.828000000     4.615000000    -7.690000000
H    -1.957000000     3.393000000    -7.883000000
O    -3.770000000     2.027000000    -5.512000000
H    -3.342000000     2.876000000    -5.404000000
H    -3.374000000     1.472000000    -4.841000000
O     3.420000000     1.236000000    -7.296000000
H     4.267000000     1.407000000    -7.708000000
H     3.562000000     0.444000000    -6.777000000
O    -0.965000000    -3.419000000    -7.454000000
H    -0.154000000    -2.925000000    -7.330000000
H    -0.738000000    -4.316000000    -7.209000000
O    -6.369000000     1.050000000    -6.005000000
H    -5.570000000     0.678000000    -6.379000000
H    -6.234000000     1.007000000    -5.059000000
O    -6.411000000     4.568000000     0.755000000
H    -5.815000000     4.885000000     1.434000000
H    -6.068000000     3.706000000     0.519000000
O    -2.274000000     4.182000000    -5.622000000
H    -2.670000000     4.856000000    -5.069000000
H    -1.413000000     4.028000000    -5.233000000
O    -0.909000000     1.596000000    -6.407000000
H    -0.627000000     0.739000000    -6.086000000
H    -0.967000000     2.139000000    -5.620000000
O     1.202000000    -1.499000000    -6.674000000
H     2.060000000    -1.122000000    -6.478000000
H     0.691000000    -1.358000000    -5.877000000
O     1.821000000     0.241000000    -4.687000000
H     2.201000000     1.114000000    -4.588000000
H     1.073000000     0.236000000    -4.089000000
O    -4.293000000     6.837000000    -5.248000000
H    -4.884000000     7.478000000    -5.643000000
H    -4.482000000     6.020000000    -5.710000000
O    -3.143000000     0.850000000    -7.952000000
H    -2.214000000     1.049000000    -7.831000000
H    -3.574000000     1.254000000    -7.198000000
O    -5.680000000    -1.986000000    -6.807000000
H    -4.757000000    -1.895000000    -6.572000000
H    -5.939000000    -2.832000000    -6.441000000
O     0.465000000     4.501000000    -4.663000000
H     1.203000000     4.080000000    -5.103000000
H     0.148000000     3.843000000    -4.044000000
O     1.389000000     2.937000000    -7.879000000
H     2.000000000     2.221000000    -7.706000000
H     0.665000000     2.787000000    -7.271000000
O    -3.029000000    -1.735000000    -6.873000000
H    -2.593000000    -0.929000000    -6.595000000
H    -2.313000000    -2.345000000    -7.051000000
O    -1.077000000    -1.068000000    -4.869000000
H    -1.295000000    -1.807000000    -4.301000000
H    -1.594000000    -0.340000000    -4.523000000
O    -0.022000000     6.961000000    -5.955000000
H    -0.920000000     7.264000000    -6.091000000
H    -0.119000000     6.115000000    -5.516000000
