215
-1492.05392
C    -1.359000000     3.836000000     3.407000000
H    -0.341000000     4.213000000     3.466000000
C    -1.572000000     2.485000000     3.657000000
C    -2.889000000     2.021000000     3.549000000
H    -3.084000000     0.962000000     3.692000000
C    -0.477000000     1.548000000     3.905000000
O     0.685000000     2.142000000     4.476000000
H    -0.221000000     1.128000000     2.921000000
O    -0.858000000     0.541000000     4.880000000
C    -0.527000000    -0.767000000     4.524000000
C    -1.569000000    -1.601000000     4.047000000
H    -2.570000000    -1.227000000     3.846000000
C    -1.178000000    -2.847000000     3.528000000
O    -2.134000000    -3.584000000     2.796000000
C     0.157000000    -3.284000000     3.580000000
C     0.585000000    -4.626000000     2.904000000
H     1.382000000    -5.130000000     3.456000000
C     0.978000000    -4.422000000     1.464000000
C     2.304000000    -4.215000000     1.131000000
H     3.109000000    -4.230000000     1.861000000
H    -0.266000000    -5.299000000     3.028000000
C     1.173000000    -2.505000000     4.186000000
H     2.224000000    -2.781000000     4.230000000
C     0.816000000    -1.249000000     4.643000000
C     1.942000000    -0.396000000     5.237000000
H     2.820000000    -1.003000000     5.466000000
H     1.714000000     0.200000000     6.123000000
C     2.485000000     0.539000000     4.119000000
C     3.698000000     0.257000000     3.436000000
H     4.023000000    -0.772000000     3.568000000
C     1.839000000     1.761000000     3.838000000
C     2.369000000     2.620000000     2.929000000
H     1.782000000     3.519000000     2.760000000
C     3.538000000     2.341000000     2.196000000
O     3.783000000     3.163000000     1.160000000
C     3.376000000     2.618000000    -0.127000000
C     2.733000000     3.630000000    -1.096000000
C     2.813000000     3.505000000    -2.501000000
H     3.396000000     2.708000000    -2.954000000
C     1.951000000     4.684000000    -0.613000000
H     1.819000000     4.765000000     0.463000000
O     4.463000000     1.913000000    -0.823000000
H     2.542000000     1.919000000     0.034000000
C     4.147000000     1.099000000     2.398000000
C     5.371000000     0.634000000     1.594000000
H     5.963000000    -0.059000000     2.195000000
H     6.044000000     1.435000000     1.283000000
C     4.905000000    -0.164000000     0.361000000
C     4.798000000    -1.575000000     0.361000000
H     5.049000000    -2.079000000     1.290000000
C     4.509000000     0.587000000    -0.746000000
C     4.143000000    -0.110000000    -1.901000000
H     3.898000000     0.473000000    -2.785000000
C     4.050000000    -1.490000000    -1.875000000
O     3.460000000    -2.017000000    -3.004000000
C     2.043000000    -2.296000000    -2.823000000
C     1.236000000    -1.994000000    -4.071000000
C     1.693000000    -1.026000000    -4.954000000
H     2.606000000    -0.500000000    -4.688000000
C    -0.052000000    -2.542000000    -4.321000000
H    -0.401000000    -3.300000000    -3.625000000
O     1.830000000    -3.656000000    -2.552000000
H     1.654000000    -1.652000000    -2.021000000
C     4.346000000    -2.243000000    -0.729000000
C     4.042000000    -3.720000000    -0.583000000
H     4.641000000    -4.166000000     0.213000000
H     4.346000000    -4.237000000    -1.496000000
C     2.621000000    -4.033000000    -0.231000000
C     1.601000000    -4.013000000    -1.217000000
C     0.303000000    -4.231000000    -0.848000000
H    -0.459000000    -4.260000000    -1.623000000
C    -0.001000000    -4.508000000     0.512000000
O    -1.370000000    -4.689000000     0.838000000
C    -2.069000000    -3.508000000     1.337000000
H    -1.497000000    -2.621000000     1.029000000
C    -3.480000000    -3.391000000     0.755000000
C    -4.442000000    -2.590000000     1.348000000
H    -4.339000000    -2.118000000     2.321000000
C    -3.778000000    -4.004000000    -0.467000000
H    -3.090000000    -4.659000000    -0.995000000
C    -5.002000000    -3.844000000    -1.050000000
O    -5.268000000    -4.316000000    -2.348000000
C    -5.957000000    -3.039000000    -0.454000000
H    -6.805000000    -2.738000000    -1.064000000
C    -5.669000000    -2.485000000     0.754000000
O    -6.498000000    -1.568000000     1.353000000
C    -6.296000000    -0.804000000     2.447000000
C    -5.785000000     0.441000000     2.418000000
H    -5.492000000     0.919000000     1.486000000
C    -6.820000000    -1.368000000     3.614000000
H    -7.155000000    -2.400000000     3.669000000
C    -6.783000000    -0.565000000     4.803000000
H    -7.100000000    -0.962000000     5.763000000
C    -6.159000000     0.649000000     4.795000000
H    -6.085000000     1.167000000     5.748000000
C    -5.644000000     1.167000000     3.602000000
O    -5.226000000     2.540000000     3.499000000
C    -3.960000000     2.934000000     3.473000000
C    -3.652000000     4.274000000     3.243000000
H    -4.481000000     4.971000000     3.144000000
C    -2.363000000     4.728000000     3.149000000
O    -2.239000000     6.038000000     2.979000000
C    -1.133000000     6.656000000     2.365000000
C    -0.862000000     6.466000000     0.995000000
H    -1.497000000     5.937000000     0.289000000
C    -0.221000000     7.279000000     3.225000000
H    -0.555000000     7.403000000     4.252000000
C     1.018000000     7.614000000     2.715000000
H     1.727000000     8.070000000     3.401000000
C     1.289000000     7.392000000     1.356000000
H     2.223000000     7.742000000     0.925000000
C     0.366000000     6.849000000     0.496000000
O     0.641000000     6.691000000    -0.871000000
C     1.326000000     5.620000000    -1.376000000
C     1.505000000     5.517000000    -2.781000000
H     1.182000000     6.263000000    -3.502000000
C     2.217000000     4.459000000    -3.326000000
O     2.251000000     4.342000000    -4.643000000
C     2.756000000     3.255000000    -5.385000000
C     1.856000000     2.276000000    -5.681000000
H     0.914000000     2.304000000    -5.139000000
C     4.010000000     3.268000000    -5.923000000
H     4.660000000     4.123000000    -5.753000000
C     4.383000000     2.270000000    -6.781000000
H     5.340000000     2.287000000    -7.296000000
C     3.493000000     1.292000000    -7.150000000
H     3.792000000     0.529000000    -7.864000000
C     2.188000000     1.342000000    -6.612000000
O     1.280000000     0.374000000    -6.935000000
C     0.914000000    -0.633000000    -6.026000000
C    -0.346000000    -1.244000000    -6.280000000
H    -1.064000000    -1.003000000    -7.060000000
C    -0.839000000    -2.243000000    -5.464000000
O    -2.039000000    -2.879000000    -5.810000000
C    -2.696000000    -3.843000000    -4.985000000
C    -2.532000000    -5.212000000    -5.343000000
H    -1.944000000    -5.556000000    -6.190000000
C    -3.312000000    -6.190000000    -4.734000000
H    -3.140000000    -7.213000000    -5.059000000
C    -4.190000000    -5.882000000    -3.697000000
H    -4.773000000    -6.659000000    -3.210000000
C    -4.372000000    -4.556000000    -3.349000000
C    -3.551000000    -3.522000000    -3.955000000
H    -3.645000000    -2.518000000    -3.549000000
C    -0.911000000     0.550000000    -2.887000000
H    -0.695000000     0.666000000    -3.946000000
C     0.260000000     0.569000000    -2.092000000
H     1.247000000     0.856000000    -2.446000000
C     0.161000000     0.183000000    -0.749000000
H     1.051000000     0.050000000    -0.080000000
C    -1.045000000    -0.194000000    -0.225000000
H    -1.151000000    -0.332000000     0.848000000
C    -2.185000000    -0.026000000    -0.926000000
H    -3.126000000    -0.280000000    -0.444000000
C    -2.168000000     0.251000000    -2.293000000
C    -3.383000000     0.201000000    -3.143000000
O    -4.465000000    -0.203000000    -2.710000000
O    -3.368000000     0.691000000    -4.249000000
O    -0.406000000     4.864000000    -6.242000000
H    -0.962000000     4.086000000    -6.287000000
H     0.365000000     4.579000000    -5.752000000
O    -7.594000000     2.336000000     0.601000000
H    -7.020000000     2.221000000    -0.157000000
H    -8.210000000     1.606000000     0.547000000
O    -4.256000000     4.477000000    -0.149000000
H    -3.459000000     3.973000000    -0.313000000
H    -4.039000000     5.031000000     0.601000000
O    -6.600000000     1.724000000    -6.650000000
H    -7.272000000     1.444000000    -6.028000000
H    -7.078000000     2.233000000    -7.305000000
O    -2.776000000     0.577000000    -9.298000000
H    -2.016000000     1.153000000    -9.217000000
H    -2.996000000     0.344000000    -8.396000000
O    -6.678000000     5.321000000    -4.871000000
H    -6.798000000     5.587000000    -3.959000000
H    -6.698000000     4.364000000    -4.845000000
O    -8.178000000     0.772000000    -4.669000000
H    -7.674000000     0.087000000    -4.230000000
H    -8.555000000     1.286000000    -3.955000000
O    -1.721000000     6.034000000    -3.182000000
H    -1.997000000     5.157000000    -3.447000000
H    -1.125000000     5.886000000    -2.447000000
O    -6.658000000    -1.199000000    -3.777000000
H    -6.452000000    -1.591000000    -4.625000000
H    -5.818000000    -0.872000000    -3.454000000
O    -4.062000000     0.437000000    -6.881000000
H    -3.836000000     0.457000000    -5.951000000
H    -4.954000000     0.781000000    -6.919000000
O    -6.140000000     5.553000000    -2.071000000
H    -5.462000000     4.973000000    -1.724000000
H    -6.906000000     5.380000000    -1.524000000
O    -5.592000000    -1.998000000    -5.966000000
H    -4.929000000    -1.338000000    -6.172000000
H    -5.407000000    -2.719000000    -6.567000000
O    -7.995000000    -4.151000000    -3.654000000
H    -8.138000000    -4.698000000    -2.881000000
H    -7.614000000    -3.343000000    -3.309000000
O    -1.509000000     2.442000000    -6.515000000
H    -2.253000000     1.870000000    -6.327000000
H    -1.277000000     2.244000000    -7.422000000
O    -1.610000000     3.341000000    -1.236000000
H    -2.026000000     3.164000000    -2.080000000
H    -0.769000000     2.887000000    -1.283000000
O    -8.712000000    -0.031000000    -0.698000000
H    -8.416000000    -0.860000000    -0.323000000
H    -7.957000000     0.292000000    -1.190000000
O    -2.722000000     3.565000000    -3.682000000
H    -3.664000000     3.738000000    -3.674000000
H    -2.637000000     2.721000000    -4.125000000
O    -5.345000000     2.801000000    -4.317000000
H    -5.726000000     2.720000000    -5.191000000
H    -4.736000000     2.065000000    -4.252000000
O    -6.309000000     1.629000000    -1.705000000
H    -6.407000000     2.140000000    -2.508000000
H    -5.613000000     1.002000000    -1.903000000
