215
-1450.84057
C    -1.462000000     3.890000000     3.013000000
H    -0.472000000     4.338000000     3.005000000
C    -1.674000000     2.581000000     3.488000000
C    -3.038000000     2.072000000     3.541000000
H    -3.238000000     1.067000000     3.904000000
C    -0.454000000     1.689000000     3.699000000
O     0.661000000     2.477000000     4.282000000
H    -0.098000000     1.272000000     2.746000000
O    -0.824000000     0.744000000     4.700000000
C    -0.484000000    -0.564000000     4.440000000
C    -1.465000000    -1.409000000     3.841000000
H    -2.477000000    -1.083000000     3.614000000
C    -1.159000000    -2.706000000     3.578000000
O    -2.060000000    -3.522000000     2.897000000
C     0.179000000    -3.124000000     3.695000000
C     0.616000000    -4.495000000     3.092000000
H     1.458000000    -4.940000000     3.625000000
C     1.001000000    -4.495000000     1.584000000
C     2.312000000    -4.238000000     1.258000000
H     3.011000000    -3.996000000     2.054000000
H    -0.211000000    -5.200000000     3.203000000
C     1.145000000    -2.287000000     4.263000000
H     2.182000000    -2.611000000     4.305000000
C     0.847000000    -0.973000000     4.677000000
C     1.933000000     0.003000000     5.280000000
H     2.723000000    -0.573000000     5.766000000
H     1.556000000     0.645000000     6.079000000
C     2.571000000     0.970000000     4.238000000
C     3.690000000     0.514000000     3.534000000
H     4.014000000    -0.502000000     3.745000000
C     1.936000000     2.157000000     3.887000000
C     2.427000000     2.920000000     2.888000000
H     1.954000000     3.849000000     2.580000000
C     3.553000000     2.485000000     2.152000000
O     3.876000000     3.043000000     0.913000000
C     3.302000000     2.507000000    -0.264000000
C     2.446000000     3.441000000    -1.088000000
C     2.227000000     3.125000000    -2.410000000
H     2.516000000     2.112000000    -2.680000000
C     1.879000000     4.619000000    -0.582000000
H     1.993000000     4.834000000     0.478000000
O     4.272000000     1.766000000    -0.996000000
H     2.535000000     1.763000000     0.000000000
C     4.150000000     1.275000000     2.474000000
C     5.197000000     0.721000000     1.576000000
H     5.938000000     0.138000000     2.127000000
H     5.815000000     1.547000000     1.218000000
C     4.666000000    -0.153000000     0.497000000
C     4.701000000    -1.534000000     0.580000000
H     4.824000000    -1.993000000     1.557000000
C     4.480000000     0.369000000    -0.815000000
C     4.138000000    -0.417000000    -1.894000000
H     3.957000000     0.071000000    -2.848000000
C     4.069000000    -1.818000000    -1.720000000
O     3.672000000    -2.657000000    -2.791000000
C     2.258000000    -2.917000000    -2.881000000
C     1.713000000    -2.663000000    -4.260000000
C     2.419000000    -1.883000000    -5.190000000
H     3.468000000    -1.682000000    -4.985000000
C     0.401000000    -2.891000000    -4.479000000
H    -0.188000000    -3.445000000    -3.753000000
O     1.976000000    -4.257000000    -2.398000000
H     1.739000000    -2.197000000    -2.232000000
C     4.398000000    -2.401000000    -0.490000000
C     4.157000000    -3.873000000    -0.339000000
H     4.775000000    -4.146000000     0.519000000
H     4.669000000    -4.431000000    -1.126000000
C     2.677000000    -4.288000000    -0.084000000
C     1.698000000    -4.496000000    -1.094000000
C     0.407000000    -4.741000000    -0.691000000
H    -0.364000000    -4.832000000    -1.451000000
C     0.005000000    -4.614000000     0.593000000
O    -1.328000000    -4.645000000     0.881000000
C    -2.060000000    -3.460000000     1.449000000
H    -1.444000000    -2.590000000     1.174000000
C    -3.440000000    -3.356000000     0.782000000
C    -4.465000000    -2.777000000     1.542000000
H    -4.347000000    -2.491000000     2.584000000
C    -3.714000000    -3.724000000    -0.536000000
H    -2.806000000    -4.086000000    -1.011000000
C    -4.901000000    -3.456000000    -1.141000000
O    -5.030000000    -3.642000000    -2.500000000
C    -5.921000000    -2.841000000    -0.383000000
H    -6.908000000    -2.721000000    -0.823000000
C    -5.713000000    -2.504000000     0.934000000
O    -6.705000000    -1.825000000     1.608000000
C    -6.536000000    -0.983000000     2.683000000
C    -6.023000000     0.279000000     2.480000000
H    -5.813000000     0.772000000     1.534000000
C    -7.062000000    -1.391000000     3.932000000
H    -7.608000000    -2.328000000     3.999000000
C    -6.911000000    -0.525000000     5.038000000
H    -7.262000000    -0.895000000     5.998000000
C    -6.304000000     0.747000000     4.860000000
H    -6.204000000     1.430000000     5.699000000
C    -5.871000000     1.128000000     3.552000000
O    -5.406000000     2.449000000     3.310000000
C    -4.113000000     2.918000000     3.327000000
C    -3.873000000     4.259000000     2.969000000
H    -4.678000000     4.939000000     2.700000000
C    -2.571000000     4.723000000     2.776000000
O    -2.352000000     6.050000000     2.571000000
C    -1.212000000     6.610000000     2.016000000
C    -0.733000000     6.344000000     0.728000000
H    -1.036000000     5.431000000     0.222000000
C    -0.564000000     7.522000000     2.858000000
H    -0.851000000     7.569000000     3.905000000
C     0.554000000     8.250000000     2.322000000
H     1.064000000     9.012000000     2.905000000
C     1.019000000     8.028000000     1.017000000
H     1.820000000     8.594000000     0.548000000
C     0.379000000     7.071000000     0.281000000
O     0.826000000     6.738000000    -0.996000000
C     1.153000000     5.494000000    -1.403000000
C     0.978000000     5.154000000    -2.742000000
H     0.555000000     5.861000000    -3.451000000
C     1.491000000     3.987000000    -3.238000000
O     1.179000000     3.519000000    -4.519000000
C     2.094000000     2.833000000    -5.335000000
C     1.668000000     1.641000000    -5.787000000
H     0.680000000     1.224000000    -5.609000000
C     3.404000000     3.308000000    -5.556000000
H     3.798000000     4.194000000    -5.065000000
C     4.232000000     2.659000000    -6.379000000
H     5.268000000     2.933000000    -6.560000000
C     3.778000000     1.469000000    -6.930000000
H     4.482000000     0.861000000    -7.493000000
C     2.562000000     0.887000000    -6.566000000
O     2.313000000    -0.365000000    -6.986000000
C     1.770000000    -1.315000000    -6.220000000
C     0.447000000    -1.546000000    -6.450000000
H    -0.071000000    -1.094000000    -7.292000000
C    -0.265000000    -2.329000000    -5.565000000
O    -1.577000000    -2.650000000    -5.834000000
C    -2.292000000    -3.566000000    -5.060000000
C    -2.187000000    -4.941000000    -5.318000000
H    -1.549000000    -5.272000000    -6.133000000
C    -3.086000000    -5.854000000    -4.710000000
H    -3.101000000    -6.923000000    -4.904000000
C    -3.983000000    -5.382000000    -3.733000000
H    -4.654000000    -6.065000000    -3.218000000
C    -4.010000000    -4.058000000    -3.365000000
C    -3.191000000    -3.134000000    -4.081000000
H    -3.261000000    -2.063000000    -3.912000000
C    -0.738000000     0.522000000    -2.619000000
H    -0.155000000     0.795000000    -3.495000000
C    -0.114000000     0.312000000    -1.391000000
H     0.972000000     0.282000000    -1.386000000
C    -0.792000000     0.193000000    -0.190000000
H    -0.311000000     0.041000000     0.695000000
C    -2.196000000     0.182000000    -0.245000000
H    -2.752000000    -0.108000000     0.643000000
C    -2.872000000     0.406000000    -1.387000000
H    -3.949000000     0.530000000    -1.307000000
C    -2.154000000     0.620000000    -2.603000000
C    -2.844000000     1.019000000    -3.831000000
O    -4.058000000     0.858000000    -3.889000000
O    -2.151000000     1.538000000    -4.697000000
O    -5.672000000     4.989000000    -7.534000000
H    -5.901000000     4.128000000    -7.182000000
H    -4.726000000     5.056000000    -7.406000000
O    -8.304000000     2.931000000    -0.952000000
H    -7.494000000     2.921000000    -1.462000000
H    -8.643000000     2.038000000    -1.024000000
O    -4.410000000     3.889000000    -0.460000000
H    -3.509000000     3.652000000    -0.682000000
H    -4.477000000     3.717000000     0.480000000
O    -6.427000000     2.729000000    -6.370000000
H    -6.920000000     2.634000000    -5.555000000
H    -7.018000000     2.401000000    -7.047000000
O    -3.158000000    -0.675000000    -8.906000000
H    -3.335000000    -0.223000000    -8.081000000
H    -4.009000000    -0.720000000    -9.342000000
O    -5.023000000     6.575000000    -4.135000000
H    -4.443000000     6.022000000    -4.658000000
H    -5.648000000     6.932000000    -4.766000000
O    -8.735000000    -0.176000000    -5.247000000
H    -7.897000000    -0.634000000    -5.190000000
H    -8.582000000     0.661000000    -4.809000000
O    -5.923000000    -0.896000000    -4.091000000
H    -5.764000000    -1.504000000    -3.369000000
H    -5.240000000    -0.231000000    -3.998000000
O    -4.058000000     0.851000000    -6.925000000
H    -3.675000000     0.780000000    -6.050000000
H    -4.876000000     1.328000000    -6.790000000
O    -6.366000000     5.592000000    -2.268000000
H    -5.566000000     5.089000000    -2.114000000
H    -6.203000000     6.055000000    -3.089000000
O    -5.087000000    -2.904000000    -6.357000000
H    -4.411000000    -2.228000000    -6.394000000
H    -4.799000000    -3.566000000    -6.985000000
O    -1.382000000     3.269000000    -6.664000000
H    -1.522000000     2.727000000    -5.887000000
H    -0.925000000     2.694000000    -7.278000000
O    -2.016000000     3.438000000    -1.130000000
H    -1.995000000     3.457000000    -2.086000000
H    -1.288000000     2.866000000    -0.886000000
O    -8.427000000    -0.494000000    -2.342000000
H    -7.611000000    -0.421000000    -2.838000000
H    -8.713000000    -1.396000000    -2.484000000
O    -8.180000000     2.368000000    -4.105000000
H    -7.541000000     2.374000000    -3.393000000
H    -9.021000000     2.224000000    -3.671000000
O    -1.742000000     4.608000000    -3.935000000
H    -1.429000000     3.730000000    -4.153000000
H    -2.672000000     4.594000000    -4.161000000
O    -2.843000000     5.623000000    -6.877000000
H    -2.367000000     4.837000000    -6.610000000
H    -2.490000000     5.835000000    -7.741000000
O    -4.181000000     3.579000000    -4.865000000
H    -4.939000000     3.224000000    -5.330000000
H    -3.535000000     2.874000000    -4.889000000
O    -5.922000000     2.180000000    -2.503000000
H    -5.261000000     2.494000000    -1.886000000
H    -5.444000000     1.593000000    -3.089000000
