215
-1455.74090
C    -0.817000000     3.832000000     3.755000000
H     0.206000000     4.165000000     3.599000000
C    -1.073000000     2.467000000     3.993000000
C    -2.368000000     2.093000000     4.265000000
H    -2.530000000     1.036000000     4.460000000
C     0.048000000     1.482000000     4.073000000
O     1.310000000     2.051000000     4.416000000
H     0.161000000     1.020000000     3.081000000
O    -0.245000000     0.426000000     4.988000000
C    -0.006000000    -0.880000000     4.454000000
C    -1.003000000    -1.524000000     3.741000000
H    -1.990000000    -1.071000000     3.781000000
C    -0.813000000    -2.775000000     3.228000000
O    -1.860000000    -3.422000000     2.625000000
C     0.485000000    -3.341000000     3.190000000
C     0.739000000    -4.753000000     2.679000000
H     1.629000000    -5.201000000     3.125000000
C     0.904000000    -4.728000000     1.172000000
C     2.185000000    -4.367000000     0.764000000
H     3.041000000    -4.278000000     1.428000000
H    -0.032000000    -5.408000000     3.092000000
C     1.570000000    -2.600000000     3.748000000
H     2.601000000    -2.944000000     3.735000000
C     1.337000000    -1.425000000     4.450000000
C     2.582000000    -0.650000000     5.006000000
H     3.425000000    -1.270000000     5.319000000
H     2.425000000    -0.007000000     5.874000000
C     2.975000000     0.335000000     3.926000000
C     4.014000000    -0.091000000     3.101000000
H     4.563000000    -0.977000000     3.409000000
C     2.396000000     1.565000000     3.677000000
C     2.951000000     2.450000000     2.773000000
H     2.509000000     3.406000000     2.505000000
C     3.928000000     2.028000000     1.891000000
O     4.153000000     2.837000000     0.763000000
C     3.451000000     2.482000000    -0.444000000
C     2.869000000     3.735000000    -1.188000000
C     2.693000000     3.657000000    -2.615000000
H     3.074000000     2.796000000    -3.158000000
C     2.319000000     4.822000000    -0.504000000
H     2.407000000     4.740000000     0.576000000
O     4.449000000     1.778000000    -1.212000000
H     2.655000000     1.749000000    -0.247000000
C     4.462000000     0.749000000     1.995000000
C     5.443000000     0.275000000     0.980000000
H     6.060000000    -0.515000000     1.415000000
H     6.052000000     1.116000000     0.642000000
C     4.852000000    -0.368000000    -0.188000000
C     4.699000000    -1.727000000    -0.242000000
H     5.032000000    -2.361000000     0.576000000
C     4.347000000     0.411000000    -1.191000000
C     3.744000000    -0.234000000    -2.307000000
H     3.307000000     0.325000000    -3.130000000
C     3.536000000    -1.604000000    -2.302000000
O     2.869000000    -2.154000000    -3.345000000
C     1.522000000    -2.625000000    -3.066000000
C     0.495000000    -2.163000000    -4.175000000
C     0.577000000    -0.928000000    -4.829000000
H     1.427000000    -0.367000000    -4.448000000
C    -0.627000000    -2.921000000    -4.485000000
H    -0.788000000    -3.840000000    -3.928000000
O     1.428000000    -4.021000000    -2.738000000
H     1.168000000    -2.108000000    -2.162000000
C     4.076000000    -2.397000000    -1.278000000
C     3.791000000    -3.913000000    -1.129000000
H     4.570000000    -4.173000000    -0.409000000
H     4.024000000    -4.463000000    -2.043000000
C     2.405000000    -4.241000000    -0.611000000
C     1.334000000    -4.309000000    -1.477000000
C     0.015000000    -4.484000000    -1.106000000
H    -0.817000000    -4.340000000    -1.790000000
C    -0.182000000    -4.754000000     0.263000000
O    -1.469000000    -4.723000000     0.792000000
C    -1.990000000    -3.492000000     1.206000000
H    -1.395000000    -2.704000000     0.722000000
C    -3.471000000    -3.252000000     0.757000000
C    -4.279000000    -2.348000000     1.425000000
H    -3.918000000    -2.007000000     2.391000000
C    -3.878000000    -3.687000000    -0.490000000
H    -3.191000000    -4.318000000    -1.048000000
C    -5.049000000    -3.125000000    -1.138000000
O    -5.470000000    -3.294000000    -2.406000000
C    -5.903000000    -2.337000000    -0.337000000
H    -6.849000000    -1.861000000    -0.586000000
C    -5.442000000    -1.853000000     0.887000000
O    -6.279000000    -1.001000000     1.543000000
C    -6.102000000    -0.463000000     2.797000000
C    -5.413000000     0.732000000     2.923000000
H    -5.042000000     1.268000000     2.053000000
C    -6.547000000    -1.021000000     3.979000000
H    -7.220000000    -1.871000000     3.901000000
C    -6.311000000    -0.428000000     5.232000000
H    -6.739000000    -0.882000000     6.122000000
C    -5.667000000     0.803000000     5.274000000
H    -5.560000000     1.390000000     6.182000000
C    -5.253000000     1.414000000     4.106000000
O    -4.717000000     2.735000000     4.175000000
C    -3.422000000     3.047000000     4.074000000
C    -3.174000000     4.345000000     3.681000000
H    -3.937000000     5.119000000     3.693000000
C    -1.859000000     4.731000000     3.566000000
O    -1.637000000     6.037000000     3.252000000
C    -0.471000000     6.551000000     2.778000000
C    -0.157000000     6.257000000     1.465000000
H    -0.899000000     5.791000000     0.821000000
C     0.355000000     7.306000000     3.584000000
H     0.002000000     7.694000000     4.536000000
C     1.559000000     7.772000000     3.142000000
H     2.256000000     8.318000000     3.773000000
C     1.857000000     7.654000000     1.748000000
H     2.705000000     8.151000000     1.283000000
C     1.019000000     6.904000000     0.881000000
O     1.322000000     6.975000000    -0.518000000
C     1.720000000     5.882000000    -1.254000000
C     1.649000000     5.878000000    -2.664000000
H     1.264000000     6.670000000    -3.302000000
C     2.124000000     4.718000000    -3.284000000
O     2.011000000     4.698000000    -4.659000000
C     2.065000000     3.507000000    -5.389000000
C     0.958000000     2.743000000    -5.680000000
H     0.014000000     3.151000000    -5.328000000
C     3.292000000     2.964000000    -5.771000000
H     4.216000000     3.414000000    -5.416000000
C     3.355000000     1.873000000    -6.653000000
H     4.325000000     1.594000000    -7.057000000
C     2.158000000     1.183000000    -6.916000000
H     2.215000000     0.198000000    -7.372000000
C     0.985000000     1.520000000    -6.350000000
O    -0.148000000     0.723000000    -6.505000000
C    -0.271000000    -0.530000000    -5.871000000
C    -1.211000000    -1.466000000    -6.317000000
H    -1.859000000    -1.147000000    -7.129000000
C    -1.385000000    -2.662000000    -5.666000000
O    -2.283000000    -3.621000000    -6.100000000
C    -3.179000000    -4.189000000    -5.224000000
C    -3.284000000    -5.577000000    -5.174000000
H    -2.629000000    -6.151000000    -5.824000000
C    -4.009000000    -6.228000000    -4.186000000
H    -4.083000000    -7.313000000    -4.180000000
C    -4.730000000    -5.508000000    -3.287000000
H    -5.356000000    -5.930000000    -2.505000000
C    -4.692000000    -4.050000000    -3.328000000
C    -3.867000000    -3.398000000    -4.305000000
H    -3.902000000    -2.312000000    -4.328000000
C    -1.045000000     0.870000000    -2.325000000
H    -0.832000000     1.236000000    -3.326000000
C    -0.159000000     0.100000000    -1.610000000
H     0.905000000     0.009000000    -1.813000000
C    -0.504000000    -0.320000000    -0.319000000
H     0.205000000    -0.870000000     0.350000000
C    -1.783000000    -0.037000000     0.167000000
H    -2.091000000    -0.401000000     1.144000000
C    -2.702000000     0.687000000    -0.551000000
H    -3.648000000     0.913000000    -0.065000000
C    -2.340000000     1.085000000    -1.831000000
C    -3.288000000     1.789000000    -2.796000000
O    -4.461000000     1.641000000    -2.632000000
O    -2.744000000     2.588000000    -3.569000000
O    -7.748000000     3.069000000     1.386000000
H    -7.163000000     3.029000000     0.630000000
H    -8.144000000     2.198000000     1.428000000
O    -3.818000000     4.055000000     0.357000000
H    -3.223000000     4.235000000    -0.370000000
H    -3.350000000     3.421000000     0.900000000
O    -6.270000000     1.271000000    -6.160000000
H    -6.335000000     2.213000000    -6.318000000
H    -6.884000000     0.881000000    -6.782000000
O    -3.582000000     1.596000000    -8.460000000
H    -3.863000000     1.458000000    -7.555000000
H    -4.143000000     1.018000000    -8.976000000
O    -4.745000000     5.631000000    -2.866000000
H    -4.725000000     4.862000000    -3.437000000
H    -4.683000000     6.375000000    -3.465000000
O    -6.396000000     0.103000000    -3.640000000
H    -6.340000000     0.449000000    -4.531000000
H    -5.892000000     0.721000000    -3.111000000
O    -3.104000000     0.985000000    -5.716000000
H    -2.158000000     0.938000000    -5.853000000
H    -3.203000000     1.461000000    -4.892000000
O    -4.612000000     6.813000000    -0.453000000
H    -4.876000000     6.383000000    -1.266000000
H    -4.323000000     6.097000000     0.113000000
O    -4.851000000    -1.435000000    -7.039000000
H    -4.421000000    -0.828000000    -6.436000000
H    -5.616000000    -0.954000000    -7.357000000
O    -1.572000000     6.861000000    -2.692000000
H    -1.235000000     7.749000000    -2.576000000
H    -2.493000000     6.984000000    -2.925000000
O    -3.010000000     4.335000000    -5.747000000
H    -2.585000000     3.780000000    -5.093000000
H    -3.946000000     4.174000000    -5.626000000
O    -0.092000000     2.726000000     0.509000000
H    -0.132000000     3.217000000    -0.311000000
H    -0.582000000     1.923000000     0.332000000
O    -8.727000000     0.433000000    -1.348000000
H    -7.892000000     0.636000000    -1.769000000
H    -8.924000000    -0.462000000    -1.626000000
O    -7.322000000     3.588000000    -2.841000000
H    -6.812000000     3.291000000    -2.088000000
H    -8.087000000     4.017000000    -2.459000000
O    -1.483000000     4.437000000    -1.482000000
H    -1.595000000     3.969000000    -2.309000000
H    -1.503000000     5.362000000    -1.726000000
O    -1.407000000     4.418000000    -8.183000000
H    -1.877000000     4.124000000    -7.403000000
H    -1.900000000     5.180000000    -8.487000000
O    -8.481000000    -1.331000000    -4.306000000
H    -7.749000000    -0.841000000    -3.932000000
H    -8.836000000    -0.753000000    -4.981000000
O    -5.521000000     3.546000000    -4.714000000
H    -6.363000000     3.667000000    -4.275000000
H    -5.249000000     2.661000000    -4.470000000
O    -5.928000000     2.611000000    -0.682000000
H    -5.309000000     3.157000000    -0.197000000
H    -5.390000000     2.158000000    -1.332000000
