215
-1470.97452
C    -0.964000000     4.027000000     3.767000000
H     0.052000000     4.412000000     3.807000000
C    -1.410000000     2.735000000     3.939000000
C    -2.780000000     2.480000000     3.740000000
H    -3.164000000     1.481000000     3.930000000
C    -0.349000000     1.654000000     4.211000000
O     0.963000000     2.085000000     4.620000000
H    -0.140000000     1.187000000     3.237000000
O    -0.869000000     0.677000000     5.144000000
C    -0.674000000    -0.669000000     4.720000000
C    -1.744000000    -1.298000000     4.082000000
H    -2.686000000    -0.787000000     3.904000000
C    -1.559000000    -2.545000000     3.465000000
O    -2.653000000    -3.030000000     2.729000000
C    -0.375000000    -3.304000000     3.647000000
C    -0.248000000    -4.713000000     3.083000000
H     0.513000000    -5.195000000     3.701000000
C     0.182000000    -4.718000000     1.592000000
C     1.504000000    -4.659000000     1.304000000
H     2.247000000    -4.868000000     2.068000000
H    -1.233000000    -5.180000000     3.144000000
C     0.688000000    -2.670000000     4.320000000
H     1.592000000    -3.257000000     4.458000000
C     0.566000000    -1.343000000     4.784000000
C     1.785000000    -0.627000000     5.352000000
H     2.523000000    -1.269000000     5.837000000
H     1.471000000     0.056000000     6.144000000
C     2.487000000     0.267000000     4.299000000
C     3.555000000    -0.287000000     3.528000000
H     4.013000000    -1.255000000     3.718000000
C     2.098000000     1.577000000     4.068000000
C     2.751000000     2.315000000     3.063000000
H     2.374000000     3.314000000     2.854000000
C     3.796000000     1.812000000     2.337000000
O     4.264000000     2.565000000     1.263000000
C     3.829000000     2.102000000    -0.029000000
C     3.298000000     3.262000000    -0.935000000
C     3.228000000     3.111000000    -2.361000000
H     3.529000000     2.175000000    -2.826000000
C     2.704000000     4.432000000    -0.342000000
H     2.753000000     4.573000000     0.734000000
O     4.936000000     1.304000000    -0.646000000
H     2.916000000     1.532000000     0.196000000
C     4.257000000     0.486000000     2.607000000
C     5.405000000    -0.111000000     1.797000000
H     6.005000000    -0.752000000     2.447000000
H     6.103000000     0.646000000     1.434000000
C     4.781000000    -0.814000000     0.596000000
C     4.434000000    -2.180000000     0.637000000
H     4.629000000    -2.772000000     1.528000000
C     4.644000000    -0.087000000    -0.636000000
C     4.059000000    -0.680000000    -1.733000000
H     3.897000000    -0.086000000    -2.628000000
C     3.660000000    -2.062000000    -1.682000000
O     3.069000000    -2.590000000    -2.805000000
C     1.629000000    -2.889000000    -2.847000000
C     1.125000000    -2.617000000    -4.306000000
C     1.499000000    -1.474000000    -4.962000000
H     2.369000000    -0.957000000    -4.565000000
C     0.046000000    -3.341000000    -4.827000000
H    -0.316000000    -4.246000000    -4.348000000
O     1.270000000    -4.256000000    -2.387000000
H     1.041000000    -2.111000000    -2.339000000
C     3.767000000    -2.776000000    -0.443000000
C     3.350000000    -4.239000000    -0.278000000
H     3.916000000    -4.692000000     0.539000000
H     3.591000000    -4.720000000    -1.229000000
C     1.881000000    -4.432000000     0.014000000
C     0.949000000    -4.405000000    -1.070000000
C    -0.383000000    -4.391000000    -0.703000000
H    -1.148000000    -4.418000000    -1.475000000
C    -0.774000000    -4.515000000     0.607000000
O    -2.067000000    -4.445000000     0.849000000
C    -2.432000000    -3.046000000     1.281000000
H    -1.617000000    -2.373000000     0.977000000
C    -3.705000000    -2.645000000     0.477000000
C    -4.617000000    -1.799000000     1.094000000
H    -4.353000000    -1.447000000     2.088000000
C    -3.872000000    -3.027000000    -0.869000000
H    -3.207000000    -3.815000000    -1.214000000
C    -4.961000000    -2.536000000    -1.606000000
O    -5.166000000    -2.838000000    -2.917000000
C    -5.937000000    -1.836000000    -0.919000000
H    -6.747000000    -1.423000000    -1.515000000
C    -5.744000000    -1.349000000     0.389000000
O    -6.755000000    -0.607000000     1.060000000
C    -6.510000000     0.125000000     2.217000000
C    -5.744000000     1.322000000     2.106000000
H    -5.354000000     1.524000000     1.112000000
C    -7.274000000    -0.074000000     3.363000000
H    -7.955000000    -0.921000000     3.398000000
C    -7.249000000     0.748000000     4.430000000
H    -7.799000000     0.549000000     5.347000000
C    -6.373000000     1.862000000     4.442000000
H    -6.248000000     2.566000000     5.261000000
C    -5.605000000     2.109000000     3.244000000
O    -4.892000000     3.325000000     3.051000000
C    -3.618000000     3.514000000     3.411000000
C    -3.087000000     4.726000000     3.186000000
H    -3.790000000     5.471000000     2.822000000
C    -1.776000000     5.026000000     3.367000000
O    -1.311000000     6.322000000     3.038000000
C    -0.132000000     6.684000000     2.392000000
C     0.177000000     6.262000000     1.158000000
H    -0.503000000     5.595000000     0.633000000
C     0.700000000     7.558000000     3.085000000
H     0.474000000     7.868000000     4.102000000
C     1.897000000     8.060000000     2.472000000
H     2.513000000     8.739000000     3.056000000
C     2.186000000     7.686000000     1.158000000
H     3.045000000     8.025000000     0.584000000
C     1.360000000     6.749000000     0.518000000
O     1.531000000     6.486000000    -0.778000000
C     2.056000000     5.330000000    -1.269000000
C     2.067000000     5.162000000    -2.651000000
H     1.523000000     5.831000000    -3.313000000
C     2.765000000     4.124000000    -3.205000000
O     2.637000000     4.004000000    -4.558000000
C     3.004000000     2.919000000    -5.333000000
C     2.033000000     1.966000000    -5.661000000
H     1.009000000     2.006000000    -5.297000000
C     4.215000000     2.868000000    -5.943000000
H     4.870000000     3.734000000    -5.884000000
C     4.530000000     1.660000000    -6.679000000
H     5.527000000     1.566000000    -7.103000000
C     3.556000000     0.687000000    -6.901000000
H     3.806000000    -0.206000000    -7.468000000
C     2.255000000     0.844000000    -6.488000000
O     1.308000000    -0.074000000    -6.894000000
C     0.845000000    -1.099000000    -6.130000000
C    -0.180000000    -1.835000000    -6.696000000
H    -0.702000000    -1.554000000    -7.607000000
C    -0.625000000    -2.966000000    -5.983000000
O    -1.771000000    -3.707000000    -6.316000000
C    -2.706000000    -4.100000000    -5.398000000
C    -2.896000000    -5.466000000    -5.225000000
H    -2.287000000    -6.137000000    -5.824000000
C    -3.892000000    -5.953000000    -4.383000000
H    -3.989000000    -7.031000000    -4.283000000
C    -4.580000000    -5.051000000    -3.606000000
H    -5.378000000    -5.337000000    -2.926000000
C    -4.306000000    -3.673000000    -3.616000000
C    -3.414000000    -3.147000000    -4.552000000
H    -3.298000000    -2.082000000    -4.739000000
C     0.021000000     1.517000000    -1.657000000
H     0.356000000     1.648000000    -2.683000000
C     0.437000000     0.406000000    -0.850000000
H     1.121000000    -0.369000000    -1.187000000
C    -0.127000000     0.224000000     0.444000000
H     0.256000000    -0.539000000     1.041000000
C    -1.111000000     1.125000000     0.839000000
H    -1.631000000     1.027000000     1.788000000
C    -1.561000000     2.155000000     0.009000000
H    -2.390000000     2.732000000     0.412000000
C    -1.048000000     2.377000000    -1.301000000
C    -1.464000000     3.527000000    -2.172000000
O    -2.375000000     4.258000000    -1.799000000
O    -0.998000000     3.702000000    -3.272000000
O    -5.246000000     6.779000000     0.815000000
H    -4.386000000     6.727000000     0.398000000
H    -5.225000000     7.600000000     1.306000000
O    -4.885000000     3.345000000    -6.209000000
H    -5.590000000     3.975000000    -6.059000000
H    -5.198000000     2.535000000    -5.807000000
O    -6.692000000     4.097000000    -3.384000000
H    -6.492000000     3.162000000    -3.339000000
H    -6.693000000     4.296000000    -4.321000000
O    -2.165000000     7.211000000    -5.771000000
H    -2.284000000     6.673000000    -6.554000000
H    -2.211000000     6.590000000    -5.044000000
O    -3.024000000     2.958000000    -8.031000000
H    -3.736000000     3.475000000    -7.655000000
H    -2.623000000     2.519000000    -7.281000000
O    -3.389000000     0.304000000    -5.449000000
H    -4.331000000     0.330000000    -5.283000000
H    -3.314000000     0.014000000    -6.358000000
O    -1.524000000     2.316000000    -5.687000000
H    -1.970000000     1.491000000    -5.492000000
H    -1.353000000     2.704000000    -4.829000000
O    -5.169000000     3.889000000    -0.912000000
H    -5.725000000     4.436000000    -1.466000000
H    -4.279000000     4.065000000    -1.219000000
O    -2.581000000     6.808000000    -0.396000000
H    -2.496000000     5.921000000    -0.746000000
H    -2.187000000     7.368000000    -1.065000000
O     0.277000000     5.061000000    -5.227000000
H    -0.158000000     4.501000000    -4.584000000
H     0.426000000     4.490000000    -5.981000000
O     0.047000000     3.525000000    -7.632000000
H    -0.454000000     3.031000000    -6.983000000
H    -0.603000000     3.797000000    -8.279000000
O    -2.758000000     8.901000000    -3.573000000
H    -2.404000000     8.250000000    -4.178000000
H    -3.697000000     8.717000000    -3.546000000
O     0.689000000     7.779000000    -5.387000000
H     0.551000000     6.835000000    -5.311000000
H    -0.179000000     8.133000000    -5.582000000
O    -5.098000000     7.413000000    -3.720000000
H    -4.493000000     6.730000000    -4.009000000
H    -5.942000000     6.969000000    -3.641000000
O    -1.002000000     6.475000000    -2.802000000
H    -1.488000000     5.750000000    -2.410000000
H    -0.420000000     6.057000000    -3.437000000
O     0.114000000     8.936000000    -1.509000000
H     0.143000000     8.049000000    -1.868000000
H     0.246000000     9.506000000    -2.267000000
O    -5.852000000     0.374000000    -4.550000000
H    -5.881000000     0.625000000    -3.627000000
H    -6.270000000    -0.486000000    -4.578000000
O    -3.545000000     5.171000000    -4.200000000
H    -3.525000000     4.411000000    -4.782000000
H    -2.995000000     4.919000000    -3.459000000
O    -6.372000000     1.635000000    -2.004000000
H    -7.153000000     1.411000000    -1.498000000
H    -5.932000000     2.305000000    -1.481000000
