215
-1448.73963
C    -1.962000000     4.025000000     2.875000000
H    -0.959000000     4.439000000     2.833000000
C    -2.087000000     2.771000000     3.417000000
C    -3.391000000     2.285000000     3.440000000
H    -3.569000000     1.271000000     3.789000000
C    -0.896000000     1.909000000     3.772000000
O     0.183000000     2.663000000     4.326000000
H    -0.535000000     1.518000000     2.809000000
O    -1.230000000     0.822000000     4.611000000
C    -0.676000000    -0.401000000     4.357000000
C    -1.467000000    -1.437000000     3.859000000
H    -2.532000000    -1.335000000     3.665000000
C    -0.992000000    -2.670000000     3.621000000
O    -1.854000000    -3.473000000     2.928000000
C     0.335000000    -2.934000000     3.841000000
C     1.010000000    -4.268000000     3.352000000
H     1.888000000    -4.453000000     3.975000000
C     1.367000000    -4.430000000     1.901000000
C     2.622000000    -4.013000000     1.499000000
H     3.406000000    -3.797000000     2.221000000
H     0.273000000    -5.045000000     3.564000000
C     1.155000000    -1.990000000     4.470000000
H     2.191000000    -2.281000000     4.623000000
C     0.681000000    -0.709000000     4.721000000
C     1.542000000     0.325000000     5.366000000
H     2.355000000    -0.173000000     5.898000000
H     0.916000000     0.827000000     6.107000000
C     2.183000000     1.274000000     4.348000000
C     3.319000000     0.867000000     3.736000000
H     3.948000000     0.070000000     4.126000000
C     1.427000000     2.366000000     3.850000000
C     1.855000000     3.023000000     2.741000000
H     1.270000000     3.803000000     2.260000000
C     3.064000000     2.720000000     2.205000000
O     3.441000000     3.389000000     1.049000000
C     3.082000000     2.882000000    -0.255000000
C     2.565000000     3.878000000    -1.292000000
C     2.778000000     3.524000000    -2.637000000
H     3.293000000     2.635000000    -2.993000000
C     1.820000000     4.962000000    -0.869000000
H     1.845000000     5.218000000     0.187000000
O     4.192000000     2.211000000    -0.745000000
H     2.230000000     2.197000000    -0.132000000
C     3.763000000     1.594000000     2.631000000
C     4.995000000     1.139000000     1.854000000
H     5.753000000     0.637000000     2.458000000
H     5.591000000     1.964000000     1.457000000
C     4.752000000     0.241000000     0.631000000
C     4.815000000    -1.162000000     0.661000000
H     5.074000000    -1.724000000     1.554000000
C     4.300000000     0.813000000    -0.584000000
C     3.995000000     0.027000000    -1.691000000
H     3.703000000     0.465000000    -2.641000000
C     3.981000000    -1.325000000    -1.569000000
O     3.328000000    -1.999000000    -2.622000000
C     1.982000000    -2.408000000    -2.396000000
C     1.150000000    -2.196000000    -3.657000000
C     1.553000000    -1.275000000    -4.609000000
H     2.326000000    -0.548000000    -4.374000000
C     0.141000000    -3.042000000    -4.032000000
H    -0.233000000    -3.745000000    -3.293000000
O     1.906000000    -3.819000000    -2.096000000
H     1.489000000    -1.852000000    -1.585000000
C     4.416000000    -1.960000000    -0.440000000
C     4.339000000    -3.534000000    -0.237000000
H     5.070000000    -3.870000000     0.501000000
H     4.536000000    -4.053000000    -1.177000000
C     2.898000000    -3.943000000     0.133000000
C     1.838000000    -4.181000000    -0.776000000
C     0.566000000    -4.534000000    -0.382000000
H    -0.222000000    -4.488000000    -1.130000000
C     0.365000000    -4.764000000     0.947000000
O    -0.940000000    -4.881000000     1.281000000
C    -1.692000000    -3.612000000     1.509000000
H    -1.060000000    -2.809000000     1.102000000
C    -3.005000000    -3.550000000     0.807000000
C    -3.988000000    -2.670000000     1.283000000
H    -3.878000000    -2.149000000     2.231000000
C    -3.158000000    -4.228000000    -0.350000000
H    -2.351000000    -4.825000000    -0.767000000
C    -4.392000000    -4.132000000    -1.028000000
O    -4.607000000    -4.757000000    -2.274000000
C    -5.464000000    -3.467000000    -0.474000000
H    -6.416000000    -3.289000000    -0.968000000
C    -5.245000000    -2.677000000     0.669000000
O    -6.352000000    -1.985000000     1.258000000
C    -6.205000000    -1.146000000     2.258000000
C    -6.020000000     0.162000000     2.055000000
H    -5.796000000     0.572000000     1.074000000
C    -6.421000000    -1.638000000     3.541000000
H    -6.587000000    -2.704000000     3.675000000
C    -6.418000000    -0.748000000     4.625000000
H    -6.409000000    -1.148000000     5.636000000
C    -6.200000000     0.572000000     4.409000000
H    -6.232000000     1.303000000     5.214000000
C    -6.035000000     1.093000000     3.095000000
O    -5.838000000     2.439000000     2.896000000
C    -4.525000000     2.986000000     2.914000000
C    -4.338000000     4.287000000     2.387000000
H    -5.220000000     4.865000000     2.124000000
C    -3.052000000     4.784000000     2.308000000
O    -2.919000000     6.076000000     1.784000000
C    -1.729000000     6.643000000     1.436000000
C    -1.226000000     6.649000000     0.128000000
H    -1.707000000     5.994000000    -0.595000000
C    -0.962000000     7.295000000     2.434000000
H    -1.337000000     7.434000000     3.444000000
C     0.192000000     7.992000000     2.043000000
H     0.622000000     8.649000000     2.795000000
C     0.783000000     7.775000000     0.793000000
H     1.694000000     8.279000000     0.482000000
C     0.039000000     7.149000000    -0.219000000
O     0.611000000     6.959000000    -1.518000000
C     1.193000000     5.797000000    -1.819000000
C     1.501000000     5.480000000    -3.162000000
H     1.160000000     6.239000000    -3.861000000
C     2.237000000     4.411000000    -3.614000000
O     2.376000000     4.287000000    -4.965000000
C     2.706000000     3.112000000    -5.599000000
C     1.794000000     2.093000000    -5.843000000
H     0.777000000     2.225000000    -5.481000000
C     4.021000000     2.950000000    -6.069000000
H     4.791000000     3.695000000    -5.888000000
C     4.408000000     1.787000000    -6.799000000
H     5.439000000     1.563000000    -7.062000000
C     3.513000000     0.728000000    -6.944000000
H     3.847000000    -0.209000000    -7.382000000
C     2.162000000     0.936000000    -6.550000000
O     1.277000000    -0.111000000    -6.692000000
C     0.832000000    -1.067000000    -5.777000000
C    -0.234000000    -1.858000000    -6.093000000
H    -0.833000000    -1.692000000    -6.985000000
C    -0.569000000    -2.839000000    -5.198000000
O    -1.430000000    -3.801000000    -5.682000000
C    -2.039000000    -4.680000000    -4.780000000
C    -1.616000000    -5.998000000    -4.779000000
H    -0.855000000    -6.251000000    -5.513000000
C    -2.233000000    -6.964000000    -3.917000000
H    -1.962000000    -8.016000000    -3.957000000
C    -3.176000000    -6.519000000    -3.026000000
H    -3.628000000    -7.200000000    -2.309000000
C    -3.596000000    -5.151000000    -3.026000000
C    -3.022000000    -4.261000000    -3.884000000
H    -3.319000000    -3.220000000    -3.782000000
C    -0.898000000     0.585000000    -2.339000000
H    -0.666000000     0.751000000    -3.387000000
C     0.034000000     0.598000000    -1.326000000
H     1.039000000     0.862000000    -1.643000000
C    -0.269000000     0.369000000    -0.017000000
H     0.434000000     0.398000000     0.756000000
C    -1.603000000     0.206000000     0.336000000
H    -2.021000000     0.239000000     1.339000000
C    -2.597000000     0.183000000    -0.683000000
H    -3.644000000    -0.003000000    -0.457000000
C    -2.230000000     0.394000000    -2.067000000
C    -3.265000000     0.509000000    -3.165000000
O    -4.420000000     0.820000000    -2.850000000
O    -2.858000000     0.610000000    -4.351000000
O    -6.397000000    -0.999000000    -2.611000000
H    -6.325000000    -1.403000000    -3.476000000
H    -5.708000000    -0.335000000    -2.598000000
O    -2.057000000     0.045000000    -9.139000000
H    -2.587000000    -0.172000000    -8.372000000
H    -2.027000000     1.001000000    -9.147000000
O    -4.247000000     4.252000000    -0.822000000
H    -3.352000000     3.916000000    -0.875000000
H    -4.164000000     5.081000000    -0.350000000
O    -3.414000000    -0.404000000    -6.802000000
H    -3.744000000    -1.278000000    -6.591000000
H    -3.272000000     0.010000000    -5.951000000
O    -4.280000000     4.192000000    -5.357000000
H    -4.356000000     3.763000000    -6.209000000
H    -3.450000000     3.873000000    -5.001000000
O    -8.735000000    -1.734000000    -0.809000000
H    -8.235000000    -1.625000000    -1.618000000
H    -8.143000000    -1.431000000    -0.120000000
O    -8.847000000     1.689000000    -0.703000000
H    -7.966000000     1.958000000    -0.965000000
H    -8.714000000     1.183000000     0.098000000
O    -4.280000000    -3.030000000    -6.429000000
H    -4.482000000    -2.969000000    -7.363000000
H    -4.094000000    -3.958000000    -6.284000000
O    -6.056000000     6.038000000    -4.521000000
H    -6.833000000     5.526000000    -4.298000000
H    -5.472000000     5.413000000    -4.951000000
O    -6.317000000     1.268000000    -4.850000000
H    -5.626000000     1.219000000    -4.189000000
H    -6.321000000     0.402000000    -5.258000000
O    -6.426000000    -1.640000000    -5.326000000
H    -6.761000000    -1.249000000    -6.133000000
H    -5.651000000    -2.130000000    -5.602000000
O    -1.240000000     2.647000000    -8.641000000
H    -1.584000000     2.664000000    -7.748000000
H    -0.636000000     3.388000000    -8.680000000
O    -1.732000000     3.221000000    -0.794000000
H    -1.967000000     2.319000000    -0.574000000
H    -0.808000000     3.175000000    -1.039000000
O    -0.359000000     4.430000000    -6.490000000
H    -0.619000000     5.288000000    -6.152000000
H    -0.975000000     3.818000000    -6.087000000
O    -4.648000000     2.318000000    -7.422000000
H    -4.255000000     1.558000000    -6.994000000
H    -5.260000000     1.946000000    -8.057000000
O    -7.466000000     3.750000000    -5.863000000
H    -7.698000000     4.008000000    -4.971000000
H    -6.971000000     2.937000000    -5.755000000
O    -2.057000000     3.094000000    -4.740000000
H    -1.749000000     3.220000000    -3.843000000
H    -2.459000000     2.225000000    -4.736000000
O    -8.734000000     0.403000000    -3.628000000
H    -7.793000000     0.304000000    -3.485000000
H    -8.884000000     0.036000000    -4.499000000
O    -5.996000000     2.276000000    -1.421000000
H    -5.619000000     1.732000000    -2.113000000
H    -5.395000000     3.018000000    -1.345000000
