215
-1437.87099
C    -1.863000000     4.052000000     3.269000000
H    -0.947000000     4.634000000     3.327000000
C    -1.889000000     2.668000000     3.439000000
C    -3.099000000     1.981000000     3.243000000
H    -3.136000000     0.901000000     3.359000000
C    -0.597000000     1.925000000     3.797000000
O     0.473000000     2.754000000     4.306000000
H    -0.226000000     1.359000000     2.929000000
O    -1.039000000     0.789000000     4.653000000
C    -0.490000000    -0.418000000     4.426000000
C    -1.265000000    -1.406000000     3.886000000
H    -2.323000000    -1.217000000     3.723000000
C    -0.681000000    -2.578000000     3.409000000
O    -1.486000000    -3.387000000     2.748000000
C     0.698000000    -2.867000000     3.696000000
C     1.340000000    -4.169000000     3.283000000
H     2.255000000    -4.338000000     3.855000000
C     1.736000000    -4.171000000     1.860000000
C     2.970000000    -3.687000000     1.453000000
H     3.792000000    -3.452000000     2.125000000
H     0.666000000    -4.952000000     3.636000000
C     1.430000000    -1.987000000     4.397000000
H     2.433000000    -2.181000000     4.767000000
C     0.891000000    -0.643000000     4.661000000
C     1.806000000     0.428000000     5.346000000
H     2.532000000    -0.139000000     5.931000000
H     1.246000000     1.004000000     6.086000000
C     2.460000000     1.342000000     4.266000000
C     3.529000000     1.009000000     3.454000000
H     4.025000000     0.068000000     3.681000000
C     1.720000000     2.475000000     3.835000000
C     2.146000000     3.361000000     2.824000000
H     1.532000000     4.200000000     2.507000000
C     3.286000000     3.039000000     2.134000000
O     3.462000000     3.757000000     0.953000000
C     2.979000000     3.053000000    -0.183000000
C     2.099000000     3.964000000    -1.090000000
C     1.771000000     3.493000000    -2.385000000
H     2.280000000     2.601000000    -2.741000000
C     1.436000000     5.086000000    -0.682000000
H     1.654000000     5.405000000     0.334000000
O     4.104000000     2.472000000    -0.896000000
H     2.367000000     2.241000000     0.237000000
C     4.005000000     1.891000000     2.447000000
C     5.201000000     1.517000000     1.596000000
H     5.939000000     1.040000000     2.244000000
H     5.675000000     2.379000000     1.122000000
C     4.898000000     0.602000000     0.373000000
C     5.084000000    -0.689000000     0.525000000
H     5.425000000    -0.957000000     1.522000000
C     4.377000000     1.198000000    -0.760000000
C     4.148000000     0.376000000    -1.877000000
H     3.742000000     0.779000000    -2.802000000
C     4.184000000    -1.037000000    -1.772000000
O     3.648000000    -1.748000000    -2.800000000
C     2.453000000    -2.453000000    -2.602000000
C     1.737000000    -2.526000000    -3.951000000
C     1.859000000    -1.410000000    -4.850000000
H     2.459000000    -0.535000000    -4.613000000
C     0.736000000    -3.437000000    -4.190000000
H     0.547000000    -4.142000000    -3.384000000
O     2.672000000    -3.884000000    -2.157000000
H     1.811000000    -2.022000000    -1.820000000
C     4.620000000    -1.531000000    -0.525000000
C     4.760000000    -3.024000000    -0.270000000
H     5.485000000    -3.212000000     0.525000000
H     5.119000000    -3.519000000    -1.175000000
C     3.370000000    -3.622000000     0.114000000
C     2.461000000    -4.058000000    -0.815000000
C     1.200000000    -4.579000000    -0.461000000
H     0.472000000    -4.888000000    -1.206000000
C     0.836000000    -4.598000000     0.884000000
O    -0.451000000    -4.815000000     1.223000000
C    -1.234000000    -3.627000000     1.319000000
H    -0.595000000    -2.805000000     0.964000000
C    -2.584000000    -3.657000000     0.632000000
C    -3.761000000    -3.167000000     1.240000000
H    -3.678000000    -2.549000000     2.130000000
C    -2.761000000    -4.272000000    -0.635000000
H    -1.888000000    -4.706000000    -1.115000000
C    -4.067000000    -4.475000000    -1.102000000
O    -4.169000000    -5.107000000    -2.367000000
C    -5.232000000    -3.887000000    -0.568000000
H    -6.172000000    -3.985000000    -1.104000000
C    -5.055000000    -3.287000000     0.693000000
O    -6.106000000    -2.720000000     1.331000000
C    -6.155000000    -1.691000000     2.229000000
C    -5.648000000    -0.480000000     1.925000000
H    -5.217000000    -0.310000000     0.942000000
C    -6.800000000    -1.926000000     3.361000000
H    -7.193000000    -2.934000000     3.463000000
C    -6.841000000    -0.932000000     4.323000000
H    -7.399000000    -0.984000000     5.255000000
C    -6.306000000     0.329000000     4.086000000
H    -6.421000000     1.099000000     4.844000000
C    -5.737000000     0.664000000     2.813000000
O    -5.412000000     1.934000000     2.371000000
C    -4.209000000     2.631000000     2.750000000
C    -4.229000000     4.033000000     2.660000000
H    -5.135000000     4.586000000     2.426000000
C    -3.064000000     4.704000000     2.896000000
O    -3.044000000     6.056000000     2.797000000
C    -2.086000000     6.791000000     2.182000000
C    -1.564000000     6.391000000     0.962000000
H    -1.774000000     5.398000000     0.575000000
C    -1.762000000     8.039000000     2.691000000
H    -2.277000000     8.316000000     3.608000000
C    -0.840000000     8.823000000     2.050000000
H    -0.637000000     9.823000000     2.426000000
C    -0.238000000     8.379000000     0.895000000
H     0.297000000     9.086000000     0.266000000
C    -0.589000000     7.124000000     0.373000000
O    -0.153000000     6.982000000    -0.951000000
C     0.445000000     5.761000000    -1.392000000
C     0.179000000     5.273000000    -2.621000000
H    -0.559000000     5.802000000    -3.218000000
C     0.850000000     4.222000000    -3.185000000
O     0.323000000     3.773000000    -4.326000000
C     1.070000000     3.026000000    -5.277000000
C     0.720000000     1.767000000    -5.677000000
H    -0.209000000     1.329000000    -5.321000000
C     2.295000000     3.552000000    -5.737000000
H     2.548000000     4.572000000    -5.460000000
C     3.100000000     2.830000000    -6.551000000
H     4.030000000     3.238000000    -6.937000000
C     2.729000000     1.557000000    -6.939000000
H     3.412000000     1.012000000    -7.586000000
C     1.551000000     1.009000000    -6.509000000
O     1.220000000    -0.281000000    -6.867000000
C     1.146000000    -1.402000000    -6.067000000
C     0.322000000    -2.466000000    -6.406000000
H    -0.076000000    -2.462000000    -7.418000000
C     0.038000000    -3.395000000    -5.408000000
O    -0.893000000    -4.399000000    -5.759000000
C    -1.579000000    -5.266000000    -4.898000000
C    -1.149000000    -6.573000000    -4.716000000
H    -0.393000000    -7.003000000    -5.367000000
C    -1.692000000    -7.384000000    -3.730000000
H    -1.409000000    -8.427000000    -3.612000000
C    -2.774000000    -6.960000000    -2.989000000
H    -3.228000000    -7.625000000    -2.259000000
C    -3.191000000    -5.649000000    -3.173000000
C    -2.687000000    -4.870000000    -4.220000000
H    -3.020000000    -3.846000000    -4.371000000
C    -0.641000000     0.295000000    -2.315000000
H    -0.680000000     0.357000000    -3.400000000
C     0.618000000     0.319000000    -1.776000000
H     1.465000000     0.495000000    -2.434000000
C     0.787000000     0.184000000    -0.425000000
H     1.789000000     0.150000000     0.021000000
C    -0.362000000    -0.048000000     0.382000000
H    -0.252000000    -0.104000000     1.462000000
C    -1.601000000    -0.107000000    -0.187000000
H    -2.444000000    -0.399000000     0.433000000
C    -1.770000000     0.106000000    -1.551000000
C    -3.135000000     0.081000000    -2.164000000
O    -4.108000000    -0.200000000    -1.494000000
O    -3.199000000     0.816000000    -3.144000000
O    -4.971000000    -2.041000000    -3.734000000
H    -4.309000000    -1.850000000    -4.398000000
H    -4.814000000    -1.393000000    -3.047000000
O    -7.880000000     4.416000000    -0.868000000
H    -6.972000000     4.290000000    -1.142000000
H    -8.399000000     4.037000000    -1.577000000
O    -2.361000000     0.826000000    -8.436000000
H    -2.470000000     0.710000000    -7.493000000
H    -2.116000000     1.746000000    -8.537000000
O    -8.091000000     2.545000000     2.359000000
H    -7.156000000     2.646000000     2.182000000
H    -8.160000000     2.596000000     3.313000000
O    -4.952000000     3.859000000    -1.076000000
H    -4.398000000     3.725000000    -1.845000000
H    -4.600000000     4.646000000    -0.661000000
O    -9.119000000     2.851000000    -3.170000000
H    -8.986000000     1.905000000    -3.105000000
H   -10.030000000     2.983000000    -2.909000000
O    -2.789000000     0.531000000    -5.716000000
H    -3.198000000    -0.300000000    -5.960000000
H    -2.980000000     0.627000000    -4.783000000
O    -7.734000000    -1.665000000    -3.806000000
H    -6.859000000    -2.027000000    -3.663000000
H    -7.606000000    -0.983000000    -4.465000000
O    -8.914000000     1.709000000    -0.004000000
H    -8.079000000     1.652000000    -0.467000000
H    -8.700000000     2.137000000     0.825000000
O    -3.676000000     4.519000000    -5.279000000
H    -2.847000000     4.208000000    -5.643000000
H    -3.645000000     4.260000000    -4.358000000
O    -5.893000000     2.242000000    -3.576000000
H    -6.423000000     1.935000000    -2.841000000
H    -5.083000000     1.735000000    -3.516000000
O    -3.797000000    -2.044000000    -6.270000000
H    -4.635000000    -2.490000000    -6.395000000
H    -3.211000000    -2.453000000    -6.906000000
O    -6.361000000    -4.519000000    -4.605000000
H    -6.342000000    -3.830000000    -5.269000000
H    -5.608000000    -4.331000000    -4.044000000
O    -0.823000000     3.042000000    -0.063000000
H    -0.893000000     2.114000000     0.161000000
H    -0.402000000     3.049000000    -0.923000000
O    -5.362000000     1.519000000    -7.455000000
H    -4.767000000     1.987000000    -6.870000000
H    -4.795000000     1.170000000    -8.143000000
O    -7.229000000     3.595000000    -5.709000000
H    -6.890000000     3.279000000    -4.872000000
H    -6.458000000     3.651000000    -6.274000000
O    -2.938000000     3.412000000    -3.108000000
H    -2.077000000     3.612000000    -2.740000000
H    -2.932000000     2.462000000    -3.229000000
O    -6.814000000     0.248000000    -5.654000000
H    -6.474000000     0.706000000    -6.423000000
H    -6.388000000     0.678000000    -4.912000000
O    -6.323000000     1.476000000    -0.937000000
H    -5.653000000     0.793000000    -0.954000000
H    -5.841000000     2.279000000    -0.737000000
