215
-1452.80484
C    -1.498000000     3.554000000     3.045000000
H    -0.517000000     3.817000000     2.658000000
C    -1.607000000     2.402000000     3.782000000
C    -2.836000000     2.014000000     4.269000000
H    -2.999000000     1.104000000     4.840000000
C    -0.346000000     1.471000000     4.007000000
O     0.786000000     2.233000000     4.473000000
H    -0.137000000     1.073000000     3.003000000
O    -0.656000000     0.428000000     5.047000000
C    -0.248000000    -0.839000000     4.776000000
C    -1.164000000    -1.658000000     4.179000000
H    -2.220000000    -1.400000000     4.191000000
C    -0.680000000    -2.806000000     3.611000000
O    -1.648000000    -3.580000000     3.007000000
C     0.616000000    -3.273000000     3.620000000
C     1.018000000    -4.612000000     2.997000000
H     1.870000000    -5.106000000     3.470000000
C     1.290000000    -4.397000000     1.515000000
C     2.641000000    -4.292000000     1.088000000
H     3.439000000    -4.304000000     1.827000000
H     0.157000000    -5.275000000     3.101000000
C     1.550000000    -2.340000000     4.154000000
H     2.602000000    -2.573000000     4.017000000
C     1.131000000    -1.106000000     4.657000000
C     2.267000000    -0.145000000     5.079000000
H     3.163000000    -0.719000000     5.324000000
H     2.023000000     0.461000000     5.954000000
C     2.746000000     0.908000000     4.059000000
C     3.804000000     0.608000000     3.274000000
H     4.328000000    -0.313000000     3.517000000
C     1.971000000     2.015000000     3.727000000
C     2.307000000     2.850000000     2.655000000
H     1.634000000     3.620000000     2.289000000
C     3.388000000     2.505000000     1.852000000
O     3.596000000     3.256000000     0.792000000
C     3.104000000     2.702000000    -0.454000000
C     2.474000000     3.765000000    -1.416000000
C     2.175000000     3.399000000    -2.755000000
H     2.405000000     2.401000000    -3.122000000
C     1.994000000     4.982000000    -0.916000000
H     2.022000000     5.112000000     0.162000000
O     4.202000000     2.063000000    -1.161000000
H     2.324000000     1.965000000    -0.213000000
C     4.174000000     1.324000000     2.158000000
C     5.311000000     0.883000000     1.286000000
H     6.043000000     0.259000000     1.803000000
H     5.791000000     1.807000000     0.955000000
C     4.827000000     0.082000000     0.079000000
C     4.792000000    -1.322000000     0.203000000
H     5.212000000    -1.837000000     1.064000000
C     4.416000000     0.737000000    -1.074000000
C     3.973000000    -0.030000000    -2.154000000
H     3.603000000     0.479000000    -3.040000000
C     4.022000000    -1.439000000    -2.114000000
O     3.427000000    -2.098000000    -3.194000000
C     2.072000000    -2.537000000    -3.075000000
C     1.313000000    -2.369000000    -4.422000000
C     1.617000000    -1.371000000    -5.369000000
H     2.440000000    -0.686000000    -5.182000000
C     0.106000000    -2.977000000    -4.620000000
H    -0.192000000    -3.683000000    -3.848000000
O     2.038000000    -3.883000000    -2.567000000
H     1.496000000    -1.863000000    -2.424000000
C     4.346000000    -2.078000000    -0.874000000
C     4.293000000    -3.630000000    -0.707000000
H     4.980000000    -4.082000000     0.011000000
H     4.701000000    -4.102000000    -1.603000000
C     2.929000000    -4.076000000    -0.273000000
C     1.841000000    -4.068000000    -1.181000000
C     0.574000000    -4.277000000    -0.757000000
H    -0.198000000    -4.086000000    -1.497000000
C     0.249000000    -4.503000000     0.558000000
O    -1.038000000    -4.594000000     0.946000000
C    -1.636000000    -3.403000000     1.573000000
H    -0.935000000    -2.591000000     1.331000000
C    -3.019000000    -3.062000000     1.037000000
C    -4.001000000    -2.450000000     1.830000000
H    -3.809000000    -2.211000000     2.873000000
C    -3.468000000    -3.515000000    -0.242000000
H    -2.791000000    -4.179000000    -0.774000000
C    -4.729000000    -3.228000000    -0.799000000
O    -4.946000000    -3.494000000    -2.161000000
C    -5.636000000    -2.513000000    -0.053000000
H    -6.592000000    -2.271000000    -0.511000000
C    -5.276000000    -2.144000000     1.268000000
O    -6.336000000    -1.565000000     2.024000000
C    -6.100000000    -0.906000000     3.229000000
C    -5.562000000     0.362000000     3.257000000
H    -5.173000000     0.803000000     2.343000000
C    -6.575000000    -1.515000000     4.406000000
H    -6.892000000    -2.549000000     4.295000000
C    -6.597000000    -0.811000000     5.595000000
H    -6.946000000    -1.164000000     6.562000000
C    -6.002000000     0.436000000     5.606000000
H    -6.047000000     1.008000000     6.530000000
C    -5.510000000     1.029000000     4.478000000
O    -5.225000000     2.377000000     4.464000000
C    -3.938000000     2.805000000     4.093000000
C    -3.835000000     4.005000000     3.358000000
H    -4.699000000     4.648000000     3.204000000
C    -2.597000000     4.392000000     2.875000000
O    -2.586000000     5.491000000     1.964000000
C    -1.404000000     6.171000000     1.661000000
C    -0.974000000     6.156000000     0.342000000
H    -1.484000000     5.521000000    -0.377000000
C    -0.791000000     6.949000000     2.649000000
H    -1.152000000     7.034000000     3.671000000
C     0.244000000     7.846000000     2.311000000
H     0.664000000     8.578000000     2.996000000
C     0.595000000     7.925000000     0.926000000
H     1.424000000     8.528000000     0.565000000
C     0.094000000     6.961000000     0.009000000
O     0.622000000     7.003000000    -1.201000000
C     1.239000000     5.834000000    -1.689000000
C     0.861000000     5.419000000    -3.007000000
H     0.253000000     6.069000000    -3.632000000
C     1.339000000     4.278000000    -3.515000000
O     1.035000000     3.924000000    -4.832000000
C     1.708000000     3.032000000    -5.687000000
C     1.054000000     1.828000000    -6.142000000
H    -0.018000000     1.702000000    -6.019000000
C     3.009000000     3.331000000    -6.018000000
H     3.506000000     4.275000000    -5.811000000
C     3.714000000     2.584000000    -6.991000000
H     4.650000000     2.955000000    -7.402000000
C     3.092000000     1.340000000    -7.430000000
H     3.605000000     0.620000000    -8.063000000
C     1.783000000     0.960000000    -6.948000000
O     1.161000000    -0.235000000    -7.389000000
C     0.829000000    -1.114000000    -6.481000000
C    -0.291000000    -1.868000000    -6.699000000
H    -0.902000000    -1.718000000    -7.586000000
C    -0.728000000    -2.783000000    -5.685000000
O    -1.839000000    -3.543000000    -5.856000000
C    -2.512000000    -4.226000000    -4.858000000
C    -2.254000000    -5.530000000    -4.664000000
H    -1.553000000    -6.114000000    -5.255000000
C    -2.940000000    -6.268000000    -3.607000000
H    -2.673000000    -7.300000000    -3.395000000
C    -3.895000000    -5.567000000    -2.739000000
H    -4.304000000    -6.078000000    -1.871000000
C    -4.075000000    -4.192000000    -2.957000000
C    -3.370000000    -3.543000000    -3.954000000
H    -3.538000000    -2.480000000    -4.105000000
C    -1.612000000     0.419000000    -2.214000000
H    -1.943000000     0.588000000    -3.235000000
C    -0.280000000     0.480000000    -1.941000000
H     0.435000000     0.518000000    -2.759000000
C     0.236000000     0.066000000    -0.715000000
H     1.257000000     0.047000000    -0.441000000
C    -0.698000000    -0.150000000     0.347000000
H    -0.356000000    -0.312000000     1.366000000
C    -2.094000000     0.006000000     0.089000000
H    -2.788000000    -0.126000000     0.915000000
C    -2.541000000     0.211000000    -1.206000000
C    -4.063000000     0.271000000    -1.471000000
O    -4.751000000     0.624000000    -0.525000000
O    -4.463000000     0.286000000    -2.679000000
O    -8.595000000     0.696000000    -4.876000000
H    -8.886000000     1.275000000    -4.172000000
H    -9.387000000     0.234000000    -5.149000000
O    -2.686000000     1.523000000    -6.855000000
H    -2.585000000     0.579000000    -6.734000000
H    -3.632000000     1.669000000    -6.814000000
O    -4.311000000     3.214000000    -0.185000000
H    -3.629000000     3.372000000    -0.839000000
H    -4.496000000     2.277000000    -0.253000000
O    -7.292000000     0.915000000    -0.132000000
H    -6.364000000     0.912000000    -0.365000000
H    -7.333000000     1.419000000     0.681000000
O    -9.102000000    -1.963000000     1.743000000
H    -8.306000000    -1.511000000     2.024000000
H    -8.850000000    -2.409000000     0.934000000
O    -3.957000000    -0.926000000    -6.204000000
H    -4.517000000    -0.240000000    -6.567000000
H    -4.552000000    -1.658000000    -6.039000000
O    -8.322000000     3.341000000    -3.301000000
H    -8.678000000     3.060000000    -2.458000000
H    -7.820000000     4.130000000    -3.097000000
O    -6.456000000    -1.041000000    -4.137000000
H    -6.963000000    -0.324000000    -4.519000000
H    -5.692000000    -0.614000000    -3.749000000
O    -9.879000000     2.639000000    -0.935000000
H    -9.515000000     1.996000000    -0.327000000
H   -10.454000000     3.181000000    -0.394000000
O    -4.378000000     6.278000000    -0.988000000
H    -3.633000000     5.706000000    -1.170000000
H    -4.956000000     5.751000000    -0.437000000
O    -4.478000000     4.828000000    -3.658000000
H    -5.148000000     4.146000000    -3.616000000
H    -3.659000000     4.351000000    -3.791000000
O    -5.507000000     2.276000000    -4.400000000
H    -4.933000000     1.780000000    -3.816000000
H    -6.392000000     2.008000000    -4.151000000
O    -8.666000000    -3.212000000    -4.156000000
H    -9.362000000    -2.804000000    -4.670000000
H    -7.926000000    -2.609000000    -4.234000000
O    -2.007000000     3.557000000    -1.872000000
H    -1.435000000     2.790000000    -1.894000000
H    -2.144000000     3.781000000    -2.792000000
O    -5.945000000    -2.581000000    -6.522000000
H    -6.346000000    -3.296000000    -7.016000000
H    -6.381000000    -2.604000000    -5.670000000
O    -2.077000000     3.568000000    -4.663000000
H    -2.320000000     2.934000000    -5.339000000
H    -1.478000000     4.170000000    -5.104000000
O    -6.888000000     2.630000000    -6.646000000
H    -6.297000000     2.925000000    -5.954000000
H    -7.750000000     2.604000000    -6.231000000
O    -6.518000000     4.717000000     0.550000000
H    -5.885000000     4.014000000     0.402000000
H    -7.372000000     4.300000000     0.435000000
O    -8.307000000    -0.842000000    -1.690000000
H    -7.518000000    -1.169000000    -2.120000000
H    -8.012000000    -0.078000000    -1.195000000
