215
-1465.40039
C    -2.170000000     3.643000000     2.479000000
H    -1.201000000     3.942000000     2.087000000
C    -2.315000000     2.518000000     3.285000000
C    -3.602000000     2.088000000     3.560000000
H    -3.725000000     1.199000000     4.174000000
C    -1.052000000     1.816000000     3.707000000
O    -0.014000000     2.801000000     4.004000000
H    -0.753000000     1.217000000     2.834000000
O    -1.335000000     0.929000000     4.812000000
C    -0.731000000    -0.284000000     4.863000000
C    -1.526000000    -1.287000000     4.390000000
H    -2.610000000    -1.234000000     4.324000000
C    -0.966000000    -2.462000000     3.893000000
O    -1.708000000    -3.332000000     3.199000000
C     0.420000000    -2.669000000     4.023000000
C     1.108000000    -3.970000000     3.589000000
H     1.883000000    -4.136000000     4.340000000
C     1.495000000    -4.082000000     2.187000000
C     2.798000000    -3.801000000     1.846000000
H     3.512000000    -3.631000000     2.647000000
H     0.378000000    -4.720000000     3.902000000
C     1.268000000    -1.679000000     4.473000000
H     2.355000000    -1.679000000     4.481000000
C     0.653000000    -0.474000000     4.897000000
C     1.508000000     0.666000000     5.286000000
H     2.359000000     0.313000000     5.874000000
H     0.880000000     1.286000000     5.929000000
C     1.998000000     1.470000000     4.078000000
C     3.227000000     1.163000000     3.572000000
H     3.777000000     0.351000000     4.041000000
C     1.225000000     2.511000000     3.497000000
C     1.664000000     3.261000000     2.410000000
H     1.149000000     4.173000000     2.119000000
C     2.964000000     2.907000000     1.955000000
O     3.397000000     3.631000000     0.923000000
C     3.245000000     2.887000000    -0.326000000
C     2.503000000     3.687000000    -1.411000000
C     2.593000000     3.373000000    -2.733000000
H     3.153000000     2.492000000    -3.035000000
C     1.774000000     4.809000000    -0.980000000
H     1.639000000     4.915000000     0.094000000
O     4.510000000     2.285000000    -0.764000000
H     2.601000000     2.038000000    -0.051000000
C     3.752000000     1.868000000     2.471000000
C     5.001000000     1.349000000     1.888000000
H     5.522000000     0.872000000     2.720000000
H     5.668000000     2.177000000     1.638000000
C     4.889000000     0.385000000     0.753000000
C     4.826000000    -0.976000000     0.977000000
H     5.021000000    -1.251000000     2.010000000
C     4.666000000     0.880000000    -0.521000000
C     4.405000000     0.046000000    -1.619000000
H     4.252000000     0.387000000    -2.640000000
C     4.387000000    -1.287000000    -1.353000000
O     3.963000000    -2.107000000    -2.361000000
C     2.600000000    -2.662000000    -2.364000000
C     2.033000000    -2.623000000    -3.735000000
C     2.369000000    -1.678000000    -4.696000000
H     3.020000000    -0.872000000    -4.368000000
C     1.086000000    -3.618000000    -4.025000000
H     0.821000000    -4.352000000    -3.268000000
O     2.792000000    -4.052000000    -1.828000000
H     1.849000000    -2.064000000    -1.827000000
C     4.633000000    -1.852000000    -0.093000000
C     4.623000000    -3.301000000     0.213000000
H     5.303000000    -3.628000000     1.002000000
H     4.959000000    -3.818000000    -0.689000000
C     3.186000000    -3.748000000     0.508000000
C     2.333000000    -4.089000000    -0.531000000
C     0.924000000    -4.233000000    -0.206000000
H     0.229000000    -4.267000000    -1.041000000
C     0.548000000    -4.331000000     1.144000000
O    -0.775000000    -4.487000000     1.371000000
C    -1.514000000    -3.274000000     1.742000000
H    -0.981000000    -2.358000000     1.448000000
C    -2.878000000    -3.228000000     1.065000000
C    -4.100000000    -2.779000000     1.590000000
H    -4.252000000    -2.677000000     2.662000000
C    -2.867000000    -3.505000000    -0.310000000
H    -1.974000000    -3.988000000    -0.697000000
C    -4.024000000    -3.283000000    -1.111000000
O    -4.093000000    -3.387000000    -2.532000000
C    -5.182000000    -2.734000000    -0.541000000
H    -6.013000000    -2.601000000    -1.228000000
C    -5.229000000    -2.484000000     0.825000000
O    -6.477000000    -2.228000000     1.392000000
C    -6.689000000    -1.247000000     2.368000000
C    -6.115000000     0.042000000     2.292000000
H    -5.655000000     0.181000000     1.317000000
C    -7.523000000    -1.516000000     3.400000000
H    -7.965000000    -2.501000000     3.525000000
C    -7.852000000    -0.521000000     4.368000000
H    -8.567000000    -0.748000000     5.155000000
C    -7.234000000     0.716000000     4.333000000
H    -7.457000000     1.468000000     5.085000000
C    -6.376000000     0.998000000     3.282000000
O    -5.962000000     2.265000000     3.110000000
C    -4.693000000     2.726000000     3.007000000
C    -4.533000000     3.904000000     2.308000000
H    -5.441000000     4.381000000     1.947000000
C    -3.275000000     4.351000000     2.027000000
O    -3.089000000     5.427000000     1.134000000
C    -1.953000000     6.120000000     0.967000000
C    -1.331000000     6.059000000    -0.253000000
H    -1.669000000     5.474000000    -1.105000000
C    -1.462000000     6.922000000     1.948000000
H    -2.112000000     7.043000000     2.810000000
C    -0.303000000     7.641000000     1.806000000
H     0.056000000     8.280000000     2.608000000
C     0.349000000     7.593000000     0.602000000
H     1.271000000     8.137000000     0.416000000
C    -0.210000000     6.802000000    -0.455000000
O     0.442000000     6.709000000    -1.682000000
C     1.185000000     5.632000000    -1.993000000
C     1.244000000     5.284000000    -3.307000000
H     0.683000000     5.704000000    -4.138000000
C     1.893000000     4.129000000    -3.688000000
O     1.742000000     3.658000000    -4.989000000
C     2.520000000     2.661000000    -5.611000000
C     1.880000000     1.516000000    -5.964000000
H     0.810000000     1.445000000    -5.786000000
C     3.847000000     2.877000000    -5.986000000
H     4.287000000     3.850000000    -5.783000000
C     4.553000000     1.807000000    -6.547000000
H     5.606000000     1.935000000    -6.787000000
C     3.922000000     0.564000000    -6.812000000
H     4.467000000    -0.200000000    -7.361000000
C     2.582000000     0.448000000    -6.511000000
O     1.930000000    -0.658000000    -6.948000000
C     1.790000000    -1.716000000    -5.997000000
C     0.825000000    -2.711000000    -6.221000000
H     0.387000000    -2.737000000    -7.215000000
C     0.504000000    -3.720000000    -5.274000000
O    -0.518000000    -4.623000000    -5.470000000
C    -1.628000000    -4.923000000    -4.734000000
C    -2.131000000    -6.192000000    -4.792000000
H    -1.697000000    -6.903000000    -5.490000000
C    -3.261000000    -6.587000000    -4.057000000
H    -3.637000000    -7.600000000    -4.178000000
C    -3.849000000    -5.661000000    -3.197000000
H    -4.657000000    -5.955000000    -2.531000000
C    -3.364000000    -4.346000000    -3.205000000
C    -2.283000000    -3.925000000    -4.033000000
H    -1.921000000    -2.901000000    -4.078000000
C    -0.423000000    -0.026000000    -2.562000000
H    -0.529000000    -0.044000000    -3.644000000
C     0.782000000     0.159000000    -1.988000000
H     1.726000000     0.192000000    -2.524000000
C     0.982000000     0.224000000    -0.648000000
H     1.972000000     0.053000000    -0.192000000
C    -0.144000000     0.258000000     0.169000000
H    -0.008000000     0.352000000     1.243000000
C    -1.399000000     0.198000000    -0.386000000
H    -2.307000000     0.168000000     0.212000000
C    -1.621000000     0.000000000    -1.752000000
C    -2.960000000    -0.055000000    -2.436000000
O    -3.998000000     0.187000000    -1.852000000
O    -2.949000000    -0.376000000    -3.616000000
O    -8.174000000    -1.559000000    -4.122000000
H    -8.961000000    -1.243000000    -4.567000000
H    -7.449000000    -1.211000000    -4.641000000
O    -1.866000000     2.252000000    -7.651000000
H    -2.120000000     1.347000000    -7.466000000
H    -1.549000000     2.232000000    -8.554000000
O    -3.898000000     2.547000000    -0.728000000
H    -3.109000000     3.005000000    -1.019000000
H    -3.693000000     1.619000000    -0.848000000
O    -8.065000000     1.305000000     0.249000000
H    -7.328000000     1.400000000     0.853000000
H    -7.676000000     0.949000000    -0.550000000
O    -3.942000000     5.049000000    -3.049000000
H    -4.185000000     5.337000000    -3.929000000
H    -4.173000000     4.120000000    -3.029000000
O    -2.569000000    -0.042000000    -6.264000000
H    -2.649000000    -0.878000000    -6.722000000
H    -2.631000000    -0.270000000    -5.336000000
O    -7.618000000     4.081000000    -2.979000000
H    -8.096000000     3.906000000    -2.168000000
H    -6.696000000     4.013000000    -2.732000000
O    -6.601000000    -3.599000000    -3.739000000
H    -7.038000000    -2.752000000    -3.835000000
H    -5.754000000    -3.387000000    -3.347000000
O    -8.047000000     1.512000000    -5.354000000
H    -7.476000000     1.044000000    -5.964000000
H    -7.533000000     2.272000000    -5.081000000
O    -3.781000000    -2.827000000    -7.618000000
H    -4.692000000    -2.954000000    -7.355000000
H    -3.498000000    -3.688000000    -7.925000000
O    -5.069000000     2.040000000    -3.805000000
H    -4.804000000     1.324000000    -3.227000000
H    -5.491000000     1.606000000    -4.547000000
O    -5.572000000    -0.832000000    -4.617000000
H    -4.772000000    -1.219000000    -4.262000000
H    -5.283000000    -0.359000000    -5.398000000
O    -1.026000000     2.960000000    -1.777000000
H    -0.405000000     2.242000000    -1.650000000
H    -1.430000000     2.779000000    -2.626000000
O    -3.143000000    -6.322000000     0.017000000
H    -3.947000000    -6.818000000     0.172000000
H    -3.444000000    -5.484000000    -0.336000000
O    -1.546000000     5.171000000    -6.049000000
H    -2.457000000     5.216000000    -5.759000000
H    -1.225000000     4.337000000    -5.704000000
O    -2.106000000     2.358000000    -4.615000000
H    -2.969000000     1.945000000    -4.583000000
H    -1.674000000     1.951000000    -5.365000000
O    -5.327000000     1.102000000    -6.567000000
H    -4.406000000     1.358000000    -6.513000000
H    -5.633000000     1.483000000    -7.390000000
O    -5.669000000     4.437000000    -0.996000000
H    -5.341000000     3.703000000    -0.477000000
H    -4.977000000     4.606000000    -1.636000000
O    -6.535000000     0.485000000    -1.871000000
H    -5.587000000     0.356000000    -1.840000000
H    -6.845000000    -0.172000000    -2.494000000
