215
-1428.02149
C    -2.276000000     3.889000000     2.951000000
H    -1.332000000     4.417000000     2.838000000
C    -2.282000000     2.575000000     3.450000000
C    -3.507000000     1.895000000     3.467000000
H    -3.467000000     0.909000000     3.923000000
C    -1.055000000     1.879000000     3.915000000
O    -0.049000000     2.845000000     4.306000000
H    -0.685000000     1.380000000     3.007000000
O    -1.272000000     0.817000000     4.934000000
C    -0.600000000    -0.432000000     4.664000000
C    -1.299000000    -1.525000000     4.203000000
H    -2.363000000    -1.427000000     4.006000000
C    -0.635000000    -2.593000000     3.636000000
O    -1.425000000    -3.555000000     3.112000000
C     0.748000000    -2.802000000     3.923000000
C     1.308000000    -4.139000000     3.493000000
H     2.268000000    -4.186000000     4.012000000
C     1.765000000    -4.181000000     2.053000000
C     3.052000000    -3.842000000     1.615000000
H     3.798000000    -3.674000000     2.388000000
H     0.690000000    -5.010000000     3.719000000
C     1.410000000    -1.740000000     4.493000000
H     2.495000000    -1.772000000     4.555000000
C     0.796000000    -0.551000000     4.844000000
C     1.618000000     0.592000000     5.316000000
H     2.509000000     0.192000000     5.804000000
H     1.016000000     1.134000000     6.049000000
C     1.970000000     1.475000000     4.174000000
C     3.246000000     1.267000000     3.543000000
H     3.798000000     0.355000000     3.754000000
C     1.261000000     2.637000000     3.852000000
C     1.724000000     3.430000000     2.774000000
H     1.105000000     4.261000000     2.448000000
C     2.921000000     3.126000000     2.107000000
O     3.333000000     3.761000000     0.986000000
C     3.079000000     3.190000000    -0.286000000
C     2.465000000     4.264000000    -1.341000000
C     2.658000000     4.083000000    -2.697000000
H     3.420000000     3.362000000    -2.980000000
C     1.424000000     5.091000000    -0.980000000
H     1.137000000     5.131000000     0.068000000
O     4.312000000     2.619000000    -0.902000000
H     2.319000000     2.399000000    -0.208000000
C     3.742000000     2.119000000     2.523000000
C     5.009000000     1.712000000     1.751000000
H     5.687000000     1.177000000     2.420000000
H     5.625000000     2.508000000     1.328000000
C     4.684000000     0.775000000     0.629000000
C     4.778000000    -0.639000000     0.734000000
H     5.019000000    -1.021000000     1.723000000
C     4.435000000     1.245000000    -0.638000000
C     4.340000000     0.433000000    -1.732000000
H     4.294000000     0.885000000    -2.719000000
C     4.269000000    -0.932000000    -1.577000000
O     3.826000000    -1.639000000    -2.646000000
C     2.459000000    -2.212000000    -2.438000000
C     1.563000000    -2.086000000    -3.632000000
C     1.761000000    -0.968000000    -4.453000000
H     2.370000000    -0.106000000    -4.191000000
C     0.544000000    -3.046000000    -3.972000000
H     0.233000000    -3.841000000    -3.300000000
O     2.547000000    -3.525000000    -1.967000000
H     1.988000000    -1.596000000    -1.658000000
C     4.627000000    -1.496000000    -0.331000000
C     4.681000000    -2.976000000    -0.027000000
H     5.317000000    -3.054000000     0.857000000
H     5.004000000    -3.471000000    -0.945000000
C     3.327000000    -3.617000000     0.262000000
C     2.299000000    -3.691000000    -0.685000000
C     1.026000000    -4.080000000    -0.249000000
H     0.219000000    -4.074000000    -0.978000000
C     0.799000000    -4.394000000     1.084000000
O    -0.414000000    -4.820000000     1.465000000
C    -1.324000000    -3.737000000     1.658000000
H    -0.880000000    -2.867000000     1.152000000
C    -2.658000000    -4.080000000     1.005000000
C    -3.792000000    -3.429000000     1.380000000
H    -3.611000000    -2.659000000     2.126000000
C    -2.684000000    -4.929000000    -0.095000000
H    -1.803000000    -5.483000000    -0.409000000
C    -3.871000000    -5.152000000    -0.786000000
O    -3.938000000    -6.034000000    -1.858000000
C    -4.990000000    -4.427000000    -0.401000000
H    -5.942000000    -4.526000000    -0.914000000
C    -4.998000000    -3.653000000     0.718000000
O    -6.135000000    -2.858000000     0.915000000
C    -6.291000000    -1.994000000     1.992000000
C    -5.865000000    -0.678000000     1.888000000
H    -5.618000000    -0.247000000     0.921000000
C    -6.678000000    -2.533000000     3.177000000
H    -7.128000000    -3.519000000     3.257000000
C    -6.833000000    -1.638000000     4.213000000
H    -7.276000000    -1.936000000     5.160000000
C    -6.415000000    -0.340000000     4.069000000
H    -6.661000000     0.334000000     4.886000000
C    -5.942000000     0.198000000     2.928000000
O    -5.749000000     1.541000000     2.706000000
C    -4.604000000     2.359000000     2.837000000
C    -4.585000000     3.733000000     2.511000000
H    -5.521000000     4.155000000     2.154000000
C    -3.422000000     4.498000000     2.537000000
O    -3.533000000     5.852000000     2.132000000
C    -2.641000000     6.655000000     1.481000000
C    -2.119000000     6.211000000     0.258000000
H    -2.676000000     5.472000000    -0.312000000
C    -2.006000000     7.692000000     2.232000000
H    -2.374000000     7.913000000     3.231000000
C    -0.763000000     8.152000000     1.728000000
H    -0.252000000     8.970000000     2.229000000
C    -0.289000000     7.697000000     0.438000000
H     0.647000000     8.125000000     0.089000000
C    -0.981000000     6.782000000    -0.320000000
O    -0.495000000     6.464000000    -1.610000000
C     0.598000000     5.725000000    -1.890000000
C     0.905000000     5.628000000    -3.187000000
H     0.186000000     6.094000000    -3.855000000
C     1.928000000     4.882000000    -3.618000000
O     2.113000000     4.751000000    -4.974000000
C     2.484000000     3.508000000    -5.570000000
C     1.529000000     2.530000000    -5.621000000
H     0.635000000     2.599000000    -5.007000000
C     3.723000000     3.458000000    -6.236000000
H     4.293000000     4.381000000    -6.174000000
C     3.969000000     2.328000000    -6.986000000
H     4.848000000     2.398000000    -7.621000000
C     3.087000000     1.288000000    -7.020000000
H     3.381000000     0.403000000    -7.578000000
C     1.923000000     1.337000000    -6.257000000
O     1.121000000     0.224000000    -6.396000000
C     0.923000000    -0.760000000    -5.538000000
C    -0.067000000    -1.756000000    -5.835000000
H    -0.658000000    -1.582000000    -6.730000000
C    -0.265000000    -2.816000000    -4.997000000
O    -1.356000000    -3.669000000    -5.335000000
C    -1.727000000    -4.822000000    -4.646000000
C    -1.225000000    -6.077000000    -5.062000000
H    -0.520000000    -6.064000000    -5.890000000
C    -1.522000000    -7.222000000    -4.329000000
H    -1.113000000    -8.160000000    -4.697000000
C    -2.466000000    -7.151000000    -3.292000000
H    -2.823000000    -8.062000000    -2.819000000
C    -2.995000000    -5.958000000    -2.900000000
C    -2.625000000    -4.769000000    -3.549000000
H    -3.072000000    -3.802000000    -3.334000000
C    -0.670000000     0.449000000    -2.455000000
H    -0.438000000     0.601000000    -3.506000000
C     0.392000000     0.670000000    -1.517000000
H     1.309000000     0.993000000    -2.005000000
C     0.394000000     0.430000000    -0.181000000
H     1.201000000     0.736000000     0.419000000
C    -0.828000000    -0.057000000     0.305000000
H    -0.856000000    -0.156000000     1.387000000
C    -1.872000000    -0.365000000    -0.559000000
H    -2.773000000    -0.795000000    -0.127000000
C    -1.857000000    -0.072000000    -1.962000000
C    -3.097000000    -0.308000000    -2.809000000
O    -4.109000000    -0.748000000    -2.341000000
O    -3.063000000     0.102000000    -3.944000000
O    -5.040000000    -0.917000000    -5.696000000
H    -4.518000000    -1.066000000    -6.484000000
H    -4.403000000    -0.651000000    -5.033000000
O    -5.819000000     4.799000000    -2.016000000
H    -6.390000000     4.312000000    -2.610000000
H    -5.339000000     4.123000000    -1.537000000
O    -4.485000000     2.766000000    -0.548000000
H    -4.441000000     2.132000000     0.168000000
H    -3.571000000     2.922000000    -0.786000000
O    -2.540000000     0.986000000    -6.433000000
H    -2.995000000     0.273000000    -6.880000000
H    -2.448000000     0.683000000    -5.529000000
O    -8.941000000     1.698000000    -3.110000000
H    -8.274000000     1.306000000    -3.674000000
H    -9.209000000     0.987000000    -2.527000000
O    -8.600000000    -1.354000000    -2.045000000
H    -8.924000000    -1.938000000    -1.360000000
H    -7.751000000    -1.052000000    -1.721000000
O    -7.440000000    -4.528000000    -3.347000000
H    -6.788000000    -5.130000000    -3.708000000
H    -6.925000000    -3.814000000    -2.972000000
O    -8.180000000     1.449000000     0.837000000
H    -7.667000000     1.161000000     1.592000000
H    -7.794000000     0.984000000     0.095000000
O    -3.408000000     3.602000000    -7.049000000
H    -4.012000000     3.345000000    -7.746000000
H    -3.208000000     2.785000000    -6.592000000
O    -7.285000000     3.804000000    -4.231000000
H    -7.827000000     3.111000000    -3.854000000
H    -6.527000000     3.345000000    -4.592000000
O    -4.312000000     2.629000000    -3.982000000
H    -3.843000000     1.837000000    -3.721000000
H    -3.664000000     3.329000000    -3.901000000
O    -4.684000000    -3.811000000    -6.907000000
H    -4.593000000    -4.484000000    -6.233000000
H    -5.628000000    -3.667000000    -6.977000000
O    -5.578000000    -2.674000000    -3.240000000
H    -5.020000000    -2.058000000    -2.764000000
H    -5.430000000    -2.467000000    -4.163000000
O    -1.826000000     3.037000000    -0.881000000
H    -1.611000000     3.492000000    -1.695000000
H    -1.603000000     2.122000000    -1.053000000
O    -3.648000000    -1.249000000    -7.881000000
H    -3.746000000    -2.200000000    -7.833000000
H    -3.974000000    -1.018000000    -8.751000000
O    -6.568000000     0.940000000    -4.293000000
H    -6.174000000     0.430000000    -5.000000000
H    -5.880000000     1.551000000    -4.027000000
O    -1.976000000     4.402000000    -3.186000000
H    -1.681000000     4.934000000    -3.925000000
H    -1.764000000     4.927000000    -2.414000000
O    -7.555000000    -2.504000000    -6.430000000
H    -8.277000000    -2.339000000    -5.824000000
H    -6.791000000    -2.118000000    -6.003000000
O    -6.369000000     0.326000000    -1.491000000
H    -5.556000000    -0.080000000    -1.792000000
H    -6.869000000     0.482000000    -2.293000000
