215
-1479.01275
C    -1.350000000     4.457000000     3.052000000
H    -0.408000000     4.915000000     3.341000000
C    -1.572000000     3.055000000     3.351000000
C    -2.887000000     2.519000000     3.161000000
H    -3.157000000     1.477000000     3.314000000
C    -0.372000000     2.158000000     3.709000000
O     0.814000000     2.894000000     4.091000000
H    -0.054000000     1.694000000     2.763000000
O    -0.845000000     1.164000000     4.728000000
C    -0.375000000    -0.079000000     4.600000000
C    -1.323000000    -1.036000000     4.313000000
H    -2.383000000    -0.814000000     4.219000000
C    -0.918000000    -2.308000000     3.907000000
O    -1.786000000    -3.249000000     3.431000000
C     0.405000000    -2.662000000     4.019000000
C     0.779000000    -4.045000000     3.552000000
H     1.679000000    -4.331000000     4.100000000
C     1.055000000    -4.304000000     2.109000000
C     2.382000000    -4.103000000     1.686000000
H     3.112000000    -3.842000000     2.448000000
H     0.002000000    -4.681000000     3.984000000
C     1.365000000    -1.729000000     4.493000000
H     2.440000000    -1.884000000     4.518000000
C     0.980000000    -0.442000000     4.691000000
C     2.087000000     0.525000000     5.132000000
H     2.961000000     0.035000000     5.566000000
H     1.618000000     1.114000000     5.924000000
C     2.561000000     1.284000000     3.958000000
C     3.657000000     0.775000000     3.240000000
H     4.159000000    -0.136000000     3.557000000
C     1.929000000     2.494000000     3.542000000
C     2.372000000     3.070000000     2.350000000
H     1.862000000     3.975000000     2.032000000
C     3.393000000     2.545000000     1.586000000
O     3.681000000     3.091000000     0.380000000
C     3.279000000     2.365000000    -0.848000000
C     2.625000000     3.336000000    -1.857000000
C     2.816000000     3.184000000    -3.224000000
H     3.501000000     2.422000000    -3.587000000
C     1.823000000     4.377000000    -1.389000000
H     1.659000000     4.572000000    -0.332000000
O     4.447000000     1.721000000    -1.412000000
H     2.560000000     1.627000000    -0.462000000
C     4.132000000     1.388000000     2.054000000
C     5.249000000     0.809000000     1.250000000
H     5.987000000     0.314000000     1.884000000
H     5.783000000     1.618000000     0.746000000
C     4.749000000    -0.125000000     0.126000000
C     4.642000000    -1.458000000     0.456000000
H     4.987000000    -1.760000000     1.442000000
C     4.469000000     0.347000000    -1.160000000
C     4.039000000    -0.544000000    -2.139000000
H     3.735000000    -0.178000000    -3.116000000
C     3.937000000    -1.881000000    -1.816000000
O     3.328000000    -2.706000000    -2.799000000
C     1.978000000    -3.018000000    -2.540000000
C     1.092000000    -2.884000000    -3.760000000
C     1.433000000    -1.871000000    -4.660000000
H     2.377000000    -1.367000000    -4.467000000
C    -0.109000000    -3.557000000    -3.921000000
H    -0.452000000    -4.322000000    -3.228000000
O     1.886000000    -4.353000000    -1.907000000
H     1.627000000    -2.303000000    -1.782000000
C     4.239000000    -2.346000000    -0.524000000
C     4.164000000    -3.840000000    -0.157000000
H     4.892000000    -4.032000000     0.633000000
H     4.517000000    -4.537000000    -0.920000000
C     2.733000000    -4.209000000     0.321000000
C     1.704000000    -4.431000000    -0.559000000
C     0.415000000    -4.568000000    -0.197000000
H    -0.363000000    -4.643000000    -0.953000000
C     0.046000000    -4.607000000     1.172000000
O    -1.291000000    -4.646000000     1.564000000
C    -1.785000000    -3.393000000     2.014000000
H    -1.193000000    -2.571000000     1.584000000
C    -3.239000000    -3.187000000     1.515000000
C    -4.292000000    -2.607000000     2.250000000
H    -4.198000000    -2.370000000     3.307000000
C    -3.491000000    -3.608000000     0.220000000
H    -2.672000000    -4.031000000    -0.357000000
C    -4.717000000    -3.318000000    -0.395000000
O    -4.968000000    -3.668000000    -1.693000000
C    -5.692000000    -2.784000000     0.383000000
H    -6.677000000    -2.598000000    -0.038000000
C    -5.506000000    -2.385000000     1.662000000
O    -6.587000000    -1.876000000     2.286000000
C    -6.424000000    -0.711000000     3.025000000
C    -5.978000000     0.481000000     2.432000000
H    -5.850000000     0.572000000     1.356000000
C    -6.605000000    -0.756000000     4.394000000
H    -6.829000000    -1.629000000     5.003000000
C    -6.401000000     0.409000000     5.168000000
H    -6.614000000     0.423000000     6.233000000
C    -5.977000000     1.620000000     4.595000000
H    -5.793000000     2.507000000     5.196000000
C    -5.786000000     1.609000000     3.204000000
O    -5.271000000     2.836000000     2.647000000
C    -3.990000000     3.346000000     2.800000000
C    -3.710000000     4.701000000     2.537000000
H    -4.531000000     5.345000000     2.230000000
C    -2.418000000     5.232000000     2.609000000
O    -2.305000000     6.527000000     2.190000000
C    -1.248000000     6.868000000     1.334000000
C    -1.060000000     6.303000000     0.094000000
H    -1.860000000     5.755000000    -0.396000000
C    -0.343000000     7.787000000     1.893000000
H    -0.570000000     8.199000000     2.873000000
C     0.877000000     8.018000000     1.222000000
H     1.526000000     8.728000000     1.728000000
C     1.141000000     7.460000000    -0.044000000
H     2.104000000     7.681000000    -0.497000000
C     0.151000000     6.621000000    -0.580000000
O     0.216000000     6.195000000    -1.907000000
C     1.106000000     5.183000000    -2.281000000
C     1.292000000     4.960000000    -3.650000000
H     0.853000000     5.624000000    -4.390000000
C     2.214000000     4.073000000    -4.125000000
O     2.456000000     3.935000000    -5.484000000
C     2.628000000     2.713000000    -6.089000000
C     1.654000000     1.649000000    -6.048000000
H     0.745000000     1.799000000    -5.470000000
C     3.703000000     2.574000000    -6.895000000
H     4.430000000     3.343000000    -7.143000000
C     3.994000000     1.273000000    -7.325000000
H     4.946000000     1.150000000    -7.835000000
C     3.141000000     0.172000000    -7.156000000
H     3.439000000    -0.794000000    -7.556000000
C     1.886000000     0.381000000    -6.602000000
O     0.960000000    -0.654000000    -6.688000000
C     0.685000000    -1.605000000    -5.778000000
C    -0.453000000    -2.430000000    -6.032000000
H    -1.106000000    -2.261000000    -6.884000000
C    -0.875000000    -3.314000000    -5.017000000
O    -2.000000000    -4.093000000    -5.315000000
C    -2.685000000    -4.682000000    -4.325000000
C    -2.596000000    -6.055000000    -4.195000000
H    -2.045000000    -6.687000000    -4.886000000
C    -3.381000000    -6.647000000    -3.196000000
H    -3.365000000    -7.730000000    -3.106000000
C    -4.174000000    -5.842000000    -2.400000000
H    -4.721000000    -6.254000000    -1.555000000
C    -4.089000000    -4.440000000    -2.458000000
C    -3.300000000    -3.853000000    -3.424000000
H    -3.246000000    -2.772000000    -3.529000000
C    -1.120000000    -0.304000000    -2.215000000
H    -0.832000000    -0.240000000    -3.261000000
C    -0.086000000    -0.356000000    -1.312000000
H     0.975000000    -0.293000000    -1.541000000
C    -0.344000000    -0.313000000     0.051000000
H     0.493000000    -0.346000000     0.762000000
C    -1.631000000    -0.254000000     0.492000000
H    -1.714000000    -0.245000000     1.575000000
C    -2.699000000    -0.243000000    -0.398000000
H    -3.714000000    -0.162000000    -0.019000000
C    -2.482000000    -0.275000000    -1.758000000
C    -3.630000000    -0.039000000    -2.675000000
O    -4.714000000     0.282000000    -2.231000000
O    -3.422000000     0.011000000    -3.893000000
O    -4.064000000    -0.404000000    -6.258000000
H    -3.500000000    -0.977000000    -6.779000000
H    -3.654000000    -0.386000000    -5.394000000
O    -5.167000000     4.982000000    -0.719000000
H    -4.368000000     4.661000000    -0.303000000
H    -5.500000000     4.231000000    -1.210000000
O    -2.905000000     3.510000000    -0.281000000
H    -2.021000000     3.150000000    -0.350000000
H    -3.381000000     2.875000000     0.255000000
O    -1.903000000     2.078000000    -5.917000000
H    -1.712000000     1.202000000    -6.251000000
H    -2.567000000     1.937000000    -5.241000000
O    -8.589000000     1.466000000    -4.826000000
H    -8.137000000     2.278000000    -5.056000000
H    -7.886000000     0.847000000    -4.631000000
O    -7.865000000    -1.802000000    -3.345000000
H    -8.107000000    -1.165000000    -2.673000000
H    -7.052000000    -1.461000000    -3.717000000
O    -6.101000000    -5.447000000    -5.855000000
H    -6.311000000    -4.884000000    -5.109000000
H    -5.264000000    -5.849000000    -5.623000000
O    -1.966000000     4.672000000    -6.253000000
H    -1.916000000     3.716000000    -6.253000000
H    -2.277000000     4.896000000    -5.376000000
O    -8.749000000     2.041000000    -1.850000000
H    -9.458000000     1.616000000    -1.368000000
H    -9.100000000     2.168000000    -2.731000000
O    -5.816000000     2.652000000    -1.644000000
H    -6.749000000     2.468000000    -1.749000000
H    -5.385000000     1.817000000    -1.825000000
O    -6.319000000     3.479000000    -6.393000000
H    -6.275000000     2.806000000    -7.072000000
H    -6.270000000     4.307000000    -6.872000000
O    -4.726000000     2.837000000    -4.420000000
H    -5.008000000     1.946000000    -4.211000000
H    -5.187000000     3.050000000    -5.231000000
O    -6.171000000     0.075000000    -4.366000000
H    -5.589000000     0.057000000    -3.606000000
H    -5.600000000    -0.120000000    -5.109000000
O    -0.501000000     2.619000000    -0.321000000
H    -0.342000000     2.736000000    -1.258000000
H    -0.814000000     1.718000000    -0.242000000
O    -7.124000000    -4.513000000    -3.533000000
H    -6.575000000    -4.382000000    -2.760000000
H    -7.459000000    -3.641000000    -3.740000000
O    -5.607000000     1.504000000    -8.114000000
H    -5.296000000     0.871000000    -7.466000000
H    -6.107000000     0.980000000    -8.740000000
O    -3.121000000     4.501000000    -3.083000000
H    -3.565000000     3.717000000    -3.406000000
H    -3.194000000     4.443000000    -2.130000000
O    -7.850000000    -0.866000000    -7.925000000
H    -7.596000000    -1.506000000    -7.261000000
H    -7.468000000    -1.199000000    -8.737000000
O    -7.086000000    -0.154000000    -1.142000000
H    -7.447000000     0.723000000    -1.269000000
H    -6.169000000    -0.077000000    -1.404000000
