215
-1457.48932
C    -1.922000000     3.779000000     2.849000000
H    -0.988000000     4.309000000     3.016000000
C    -2.084000000     2.482000000     3.330000000
C    -3.387000000     1.970000000     3.289000000
H    -3.620000000     0.975000000     3.660000000
C    -0.934000000     1.622000000     3.760000000
O     0.134000000     2.323000000     4.410000000
H    -0.569000000     1.141000000     2.840000000
O    -1.344000000     0.477000000     4.602000000
C    -0.772000000    -0.799000000     4.442000000
C    -1.626000000    -1.827000000     3.934000000
H    -2.633000000    -1.572000000     3.614000000
C    -1.065000000    -3.036000000     3.554000000
O    -1.837000000    -3.940000000     2.848000000
C     0.243000000    -3.335000000     3.728000000
C     0.840000000    -4.713000000     3.278000000
H     1.710000000    -4.924000000     3.903000000
C     1.188000000    -4.534000000     1.795000000
C     2.480000000    -4.142000000     1.453000000
H     3.170000000    -3.912000000     2.261000000
H     0.054000000    -5.465000000     3.380000000
C     1.103000000    -2.305000000     4.294000000
H     2.145000000    -2.473000000     4.553000000
C     0.599000000    -1.061000000     4.745000000
C     1.495000000     0.049000000     5.366000000
H     2.322000000    -0.425000000     5.899000000
H     0.891000000     0.601000000     6.090000000
C     2.034000000     0.991000000     4.334000000
C     3.324000000     0.792000000     3.789000000
H     3.855000000    -0.140000000     3.962000000
C     1.346000000     2.109000000     3.870000000
C     1.914000000     2.962000000     2.931000000
H     1.389000000     3.835000000     2.552000000
C     3.091000000     2.654000000     2.293000000
O     3.465000000     3.445000000     1.252000000
C     3.281000000     2.892000000    -0.088000000
C     2.812000000     4.023000000    -1.009000000
C     3.034000000     3.915000000    -2.445000000
H     3.722000000     3.145000000    -2.787000000
C     1.997000000     5.098000000    -0.532000000
H     1.842000000     5.291000000     0.526000000
O     4.501000000     2.259000000    -0.495000000
H     2.465000000     2.154000000    -0.097000000
C     3.816000000     1.569000000     2.720000000
C     5.000000000     1.108000000     2.012000000
H     5.612000000     0.503000000     2.684000000
H     5.584000000     2.017000000     1.853000000
C     4.813000000     0.231000000     0.756000000
C     4.606000000    -1.131000000     0.852000000
H     4.842000000    -1.648000000     1.779000000
C     4.526000000     0.918000000    -0.409000000
C     4.108000000     0.105000000    -1.553000000
H     3.820000000     0.611000000    -2.471000000
C     3.984000000    -1.246000000    -1.445000000
O     3.477000000    -1.926000000    -2.482000000
C     2.101000000    -2.351000000    -2.378000000
C     1.393000000    -2.090000000    -3.704000000
C     1.544000000    -0.859000000    -4.444000000
H     2.161000000    -0.068000000    -4.025000000
C     0.553000000    -3.036000000    -4.289000000
H     0.379000000    -3.967000000    -3.756000000
O     2.023000000    -3.694000000    -2.090000000
H     1.578000000    -1.847000000    -1.552000000
C     4.261000000    -1.863000000    -0.277000000
C     4.172000000    -3.388000000    -0.170000000
H     4.812000000    -3.811000000     0.607000000
H     4.621000000    -3.807000000    -1.073000000
C     2.773000000    -3.857000000     0.142000000
C     1.792000000    -3.967000000    -0.786000000
C     0.480000000    -4.465000000    -0.534000000
H    -0.218000000    -4.608000000    -1.355000000
C     0.227000000    -4.795000000     0.767000000
O    -1.094000000    -5.053000000     1.050000000
C    -1.827000000    -3.913000000     1.386000000
H    -1.384000000    -3.008000000     0.943000000
C    -3.200000000    -3.946000000     0.657000000
C    -4.339000000    -3.401000000     1.290000000
H    -4.307000000    -3.057000000     2.320000000
C    -3.219000000    -4.233000000    -0.698000000
H    -2.411000000    -4.712000000    -1.244000000
C    -4.430000000    -4.027000000    -1.393000000
O    -4.361000000    -4.037000000    -2.787000000
C    -5.540000000    -3.447000000    -0.827000000
H    -6.429000000    -3.165000000    -1.385000000
C    -5.538000000    -3.139000000     0.533000000
O    -6.639000000    -2.486000000     1.112000000
C    -6.496000000    -1.538000000     2.101000000
C    -6.069000000    -0.240000000     1.698000000
H    -5.890000000    -0.071000000     0.640000000
C    -6.778000000    -1.695000000     3.408000000
H    -7.017000000    -2.672000000     3.821000000
C    -6.667000000    -0.705000000     4.364000000
H    -6.956000000    -0.925000000     5.389000000
C    -6.280000000     0.540000000     3.969000000
H    -6.227000000     1.402000000     4.629000000
C    -5.916000000     0.758000000     2.659000000
O    -5.610000000     2.078000000     2.397000000
C    -4.474000000     2.687000000     2.689000000
C    -4.220000000     3.936000000     2.191000000
H    -5.092000000     4.456000000     1.802000000
C    -2.979000000     4.518000000     2.320000000
O    -2.877000000     5.875000000     1.829000000
C    -1.628000000     6.473000000     1.611000000
C    -0.980000000     6.447000000     0.349000000
H    -1.348000000     5.858000000    -0.487000000
C    -1.249000000     7.395000000     2.551000000
H    -1.756000000     7.503000000     3.506000000
C    -0.095000000     8.202000000     2.397000000
H     0.274000000     8.864000000     3.175000000
C     0.561000000     8.167000000     1.147000000
H     1.490000000     8.717000000     1.021000000
C     0.102000000     7.355000000     0.107000000
O     0.792000000     7.161000000    -1.110000000
C     1.509000000     6.038000000    -1.457000000
C     1.753000000     5.888000000    -2.809000000
H     1.351000000     6.627000000    -3.498000000
C     2.510000000     4.826000000    -3.302000000
O     2.791000000     4.851000000    -4.689000000
C     2.933000000     3.666000000    -5.358000000
C     1.890000000     2.724000000    -5.467000000
H     0.892000000     2.877000000    -5.065000000
C     4.208000000     3.323000000    -5.805000000
H     5.112000000     3.908000000    -5.657000000
C     4.419000000     2.043000000    -6.420000000
H     5.387000000     1.723000000    -6.796000000
C     3.351000000     1.149000000    -6.665000000
H     3.431000000     0.173000000    -7.136000000
C     2.096000000     1.458000000    -6.117000000
O     1.039000000     0.549000000    -6.304000000
C     0.889000000    -0.693000000    -5.660000000
C     0.115000000    -1.680000000    -6.237000000
H    -0.359000000    -1.452000000    -7.188000000
C    -0.065000000    -2.870000000    -5.547000000
O    -0.980000000    -3.819000000    -6.007000000
C    -1.757000000    -4.592000000    -5.192000000
C    -1.627000000    -5.964000000    -5.025000000
H    -0.962000000    -6.509000000    -5.689000000
C    -2.225000000    -6.698000000    -4.013000000
H    -2.066000000    -7.752000000    -3.802000000
C    -3.157000000    -6.009000000    -3.225000000
H    -3.700000000    -6.569000000    -2.468000000
C    -3.461000000    -4.681000000    -3.571000000
C    -2.738000000    -3.953000000    -4.529000000
H    -2.910000000    -2.898000000    -4.723000000
C    -0.525000000     0.274000000    -1.970000000
H    -0.393000000     0.538000000    -3.016000000
C     0.632000000     0.258000000    -1.184000000
H     1.578000000     0.538000000    -1.640000000
C     0.550000000    -0.144000000     0.127000000
H     1.406000000    -0.201000000     0.802000000
C    -0.724000000    -0.657000000     0.590000000
H    -0.855000000    -0.943000000     1.631000000
C    -1.912000000    -0.668000000    -0.219000000
H    -2.869000000    -1.040000000     0.136000000
C    -1.809000000    -0.148000000    -1.499000000
C    -3.008000000    -0.016000000    -2.391000000
O    -4.133000000    -0.153000000    -1.961000000
O    -2.906000000     0.396000000    -3.507000000
O    -4.048000000    -0.700000000    -5.926000000
H    -3.309000000    -0.786000000    -6.529000000
H    -3.644000000    -0.546000000    -5.072000000
O    -6.400000000     4.624000000    -0.462000000
H    -6.800000000     4.973000000    -1.259000000
H    -5.741000000     4.005000000    -0.777000000
O    -2.615000000     3.742000000    -1.311000000
H    -3.466000000     3.327000000    -1.453000000
H    -2.265000000     3.308000000    -0.533000000
O    -3.326000000     6.282000000    -2.245000000
H    -3.340000000     5.522000000    -1.663000000
H    -3.657000000     7.001000000    -1.708000000
O    -1.526000000     2.229000000    -4.881000000
H    -1.491000000     2.056000000    -5.821000000
H    -2.174000000     1.609000000    -4.546000000
O    -3.989000000     5.196000000    -7.173000000
H    -3.156000000     4.878000000    -7.521000000
H    -4.247000000     4.536000000    -6.530000000
O    -8.882000000    -1.878000000    -3.771000000
H    -8.051000000    -1.524000000    -3.451000000
H    -9.481000000    -1.132000000    -3.756000000
O    -3.680000000     4.395000000    -4.365000000
H    -3.009000000     4.274000000    -5.037000000
H    -3.231000000     4.858000000    -3.658000000
O    -9.335000000     1.976000000    -2.692000000
H    -8.912000000     1.533000000    -1.956000000
H    -8.849000000     1.679000000    -3.461000000
O    -6.733000000    -5.760000000    -3.071000000
H    -6.913000000    -6.235000000    -2.260000000
H    -6.475000000    -4.884000000    -2.784000000
O    -5.006000000     2.071000000    -4.192000000
H    -4.391000000     1.439000000    -3.820000000
H    -4.518000000     2.894000000    -4.218000000
O    -6.220000000    -0.982000000    -3.352000000
H    -5.594000000    -0.396000000    -2.927000000
H    -5.707000000    -1.758000000    -3.577000000
O    -8.108000000     2.701000000     0.706000000
H    -7.485000000     1.986000000     0.840000000
H    -7.617000000     3.357000000     0.212000000
O    -0.183000000     2.732000000     0.300000000
H     0.034000000     3.139000000    -0.538000000
H    -0.325000000     1.809000000     0.090000000
O    -6.050000000    -1.469000000    -7.613000000
H    -5.297000000    -1.250000000    -7.064000000
H    -5.736000000    -1.352000000    -8.509000000
O    -2.795000000    -0.908000000    -8.346000000
H    -2.266000000    -1.701000000    -8.429000000
H    -3.438000000    -0.973000000    -9.052000000
O    -6.082000000     1.388000000    -6.575000000
H    -5.682000000     0.520000000    -6.620000000
H    -5.995000000     1.646000000    -5.658000000
O    -0.493000000     3.548000000    -2.810000000
H    -1.290000000     3.644000000    -2.288000000
H    -0.750000000     2.980000000    -3.536000000
O    -5.151000000     2.357000000    -1.474000000
H    -4.976000000     1.446000000    -1.240000000
H    -5.385000000     2.325000000    -2.402000000
