215
-1459.30477
C    -1.099000000     4.241000000     2.804000000
H    -0.115000000     4.675000000     2.964000000
C    -1.296000000     2.883000000     3.181000000
C    -2.629000000     2.351000000     3.065000000
H    -2.763000000     1.298000000     3.299000000
C    -0.206000000     1.948000000     3.642000000
O     1.026000000     2.641000000     3.872000000
H    -0.006000000     1.257000000     2.810000000
O    -0.593000000     1.067000000     4.741000000
C    -0.136000000    -0.271000000     4.615000000
C    -1.087000000    -1.205000000     4.280000000
H    -2.111000000    -0.886000000     4.107000000
C    -0.735000000    -2.510000000     3.883000000
O    -1.740000000    -3.379000000     3.508000000
C     0.654000000    -2.870000000     3.921000000
C     1.049000000    -4.317000000     3.617000000
H     1.993000000    -4.677000000     4.031000000
C     1.216000000    -4.506000000     2.148000000
C     2.449000000    -4.268000000     1.586000000
H     3.291000000    -4.047000000     2.237000000
H     0.333000000    -5.076000000     3.942000000
C     1.583000000    -1.911000000     4.319000000
H     2.601000000    -2.292000000     4.299000000
C     1.264000000    -0.624000000     4.628000000
C     2.371000000     0.323000000     4.933000000
H     3.150000000    -0.270000000     5.417000000
H     2.038000000     0.995000000     5.727000000
C     2.798000000     1.131000000     3.727000000
C     3.916000000     0.705000000     2.968000000
H     4.327000000    -0.240000000     3.313000000
C     2.156000000     2.287000000     3.295000000
C     2.557000000     2.933000000     2.195000000
H     2.022000000     3.732000000     1.688000000
C     3.651000000     2.545000000     1.488000000
O     3.979000000     3.079000000     0.267000000
C     3.366000000     2.543000000    -0.908000000
C     2.685000000     3.627000000    -1.727000000
C     2.478000000     3.322000000    -3.127000000
H     2.843000000     2.414000000    -3.601000000
C     2.204000000     4.758000000    -1.184000000
H     2.533000000     4.973000000    -0.170000000
O     4.455000000     1.813000000    -1.536000000
H     2.580000000     1.853000000    -0.566000000
C     4.395000000     1.389000000     1.854000000
C     5.500000000     0.894000000     0.985000000
H     6.195000000     0.305000000     1.587000000
H     6.072000000     1.725000000     0.567000000
C     4.904000000    -0.075000000    -0.061000000
C     4.678000000    -1.433000000     0.271000000
H     5.105000000    -1.844000000     1.182000000
C     4.438000000     0.447000000    -1.300000000
C     3.815000000    -0.413000000    -2.185000000
H     3.601000000    -0.030000000    -3.179000000
C     3.684000000    -1.744000000    -1.875000000
O     3.093000000    -2.554000000    -2.812000000
C     1.732000000    -2.769000000    -2.559000000
C     0.853000000    -2.588000000    -3.826000000
C     1.157000000    -1.535000000    -4.644000000
H     2.013000000    -0.883000000    -4.495000000
C    -0.220000000    -3.473000000    -4.012000000
H    -0.400000000    -4.221000000    -3.245000000
O     1.497000000    -4.091000000    -1.977000000
H     1.506000000    -2.033000000    -1.773000000
C     4.098000000    -2.264000000    -0.684000000
C     4.005000000    -3.728000000    -0.400000000
H     4.822000000    -4.029000000     0.259000000
H     4.014000000    -4.431000000    -1.236000000
C     2.630000000    -4.161000000     0.229000000
C     1.539000000    -4.349000000    -0.638000000
C     0.298000000    -4.732000000    -0.029000000
H    -0.587000000    -4.902000000    -0.637000000
C     0.134000000    -4.715000000     1.337000000
O    -1.152000000    -4.889000000     1.899000000
C    -1.851000000    -3.709000000     2.100000000
H    -1.375000000    -2.867000000     1.575000000
C    -3.294000000    -3.644000000     1.646000000
C    -4.223000000    -2.958000000     2.393000000
H    -4.036000000    -2.402000000     3.308000000
C    -3.640000000    -4.046000000     0.382000000
H    -2.812000000    -4.523000000    -0.137000000
C    -4.873000000    -3.937000000    -0.165000000
O    -5.249000000    -4.489000000    -1.352000000
C    -5.827000000    -3.294000000     0.633000000
H    -6.841000000    -3.068000000     0.311000000
C    -5.498000000    -2.765000000     1.872000000
O    -6.464000000    -1.957000000     2.548000000
C    -6.253000000    -0.694000000     3.034000000
C    -5.634000000     0.326000000     2.342000000
H    -5.264000000     0.160000000     1.333000000
C    -6.522000000    -0.515000000     4.389000000
H    -6.808000000    -1.424000000     4.913000000
C    -6.506000000     0.747000000     4.968000000
H    -6.735000000     0.791000000     6.030000000
C    -5.953000000     1.776000000     4.266000000
H    -5.873000000     2.789000000     4.652000000
C    -5.514000000     1.556000000     2.955000000
O    -4.924000000     2.615000000     2.273000000
C    -3.680000000     3.060000000     2.455000000
C    -3.498000000     4.426000000     2.202000000
H    -4.436000000     4.907000000     1.937000000
C    -2.219000000     4.994000000     2.334000000
O    -2.081000000     6.331000000     2.055000000
C    -0.934000000     6.997000000     1.610000000
C    -0.536000000     6.672000000     0.279000000
H    -0.969000000     5.837000000    -0.265000000
C    -0.152000000     7.908000000     2.361000000
H    -0.149000000     8.112000000     3.429000000
C     0.955000000     8.460000000     1.787000000
H     1.705000000     9.018000000     2.341000000
C     1.334000000     8.125000000     0.463000000
H     2.302000000     8.373000000     0.036000000
C     0.572000000     7.242000000    -0.267000000
O     0.949000000     6.879000000    -1.550000000
C     1.488000000     5.687000000    -1.996000000
C     1.288000000     5.430000000    -3.324000000
H     0.762000000     6.169000000    -3.924000000
C     1.804000000     4.300000000    -3.915000000
O     1.822000000     4.200000000    -5.256000000
C     2.089000000     2.984000000    -5.847000000
C     1.155000000     1.934000000    -5.757000000
H     0.281000000     2.046000000    -5.120000000
C     3.205000000     2.751000000    -6.688000000
H     3.813000000     3.584000000    -7.030000000
C     3.397000000     1.544000000    -7.449000000
H     4.183000000     1.412000000    -8.188000000
C     2.360000000     0.594000000    -7.407000000
H     2.435000000    -0.339000000    -7.960000000
C     1.325000000     0.749000000    -6.469000000
O     0.301000000    -0.186000000    -6.444000000
C     0.242000000    -1.270000000    -5.660000000
C    -0.907000000    -2.054000000    -5.815000000
H    -1.570000000    -1.847000000    -6.651000000
C    -1.129000000    -3.122000000    -4.947000000
O    -2.328000000    -3.795000000    -5.061000000
C    -2.955000000    -4.649000000    -4.142000000
C    -2.869000000    -6.027000000    -4.300000000
H    -2.374000000    -6.389000000    -5.198000000
C    -3.442000000    -6.923000000    -3.369000000
H    -3.195000000    -7.980000000    -3.426000000
C    -4.264000000    -6.326000000    -2.373000000
H    -4.801000000    -6.965000000    -1.678000000
C    -4.361000000    -5.009000000    -2.271000000
C    -3.700000000    -4.153000000    -3.080000000
H    -3.789000000    -3.072000000    -3.001000000
C    -1.002000000     0.254000000    -2.162000000
H    -0.757000000     0.323000000    -3.219000000
C     0.048000000     0.068000000    -1.211000000
H     1.085000000     0.018000000    -1.534000000
C    -0.294000000    -0.052000000     0.156000000
H     0.442000000    -0.203000000     0.875000000
C    -1.620000000     0.034000000     0.558000000
H    -1.951000000    -0.078000000     1.587000000
C    -2.614000000     0.269000000    -0.414000000
H    -3.647000000     0.264000000    -0.076000000
C    -2.333000000     0.450000000    -1.713000000
C    -3.426000000     0.840000000    -2.716000000
O    -4.500000000     1.219000000    -2.242000000
O    -3.208000000     0.938000000    -3.879000000
O    -5.518000000    -0.083000000    -4.739000000
H    -5.241000000    -0.965000000    -4.983000000
H    -4.723000000     0.335000000    -4.407000000
O    -5.920000000     6.422000000    -1.196000000
H    -6.146000000     5.911000000    -1.973000000
H    -6.577000000     6.174000000    -0.546000000
O    -2.618000000     5.492000000    -2.073000000
H    -1.808000000     5.009000000    -1.904000000
H    -3.276000000     5.051000000    -1.537000000
O    -7.001000000     2.376000000    -2.147000000
H    -7.281000000     2.752000000    -2.982000000
H    -6.045000000     2.396000000    -2.184000000
O    -2.555000000     0.738000000    -6.771000000
H    -2.723000000     0.742000000    -5.829000000
H    -1.618000000     0.554000000    -6.846000000
O    -8.433000000     0.484000000    -5.385000000
H    -8.404000000     1.335000000    -4.947000000
H    -7.743000000    -0.027000000    -4.962000000
O    -5.996000000     5.293000000    -4.079000000
H    -5.730000000     4.374000000    -4.086000000
H    -5.451000000     5.705000000    -4.749000000
O    -8.597000000    -0.942000000    -0.608000000
H    -7.766000000    -0.819000000    -1.067000000
H    -8.572000000    -0.304000000     0.106000000
O    -1.297000000     3.478000000    -6.819000000
H    -1.605000000     2.579000000    -6.939000000
H    -1.788000000     3.800000000    -6.063000000
O    -4.039000000     3.582000000    -0.933000000
H    -4.249000000     2.801000000    -1.445000000
H    -4.673000000     3.577000000    -0.217000000
O    -5.110000000     1.880000000    -7.228000000
H    -4.766000000     0.990000000    -7.148000000
H    -5.032000000     2.247000000    -6.347000000
O    -8.050000000     3.176000000    -4.454000000
H    -8.238000000     4.109000000    -4.561000000
H    -7.359000000     2.997000000    -5.091000000
O    -4.829000000     2.904000000    -4.683000000
H    -3.950000000     3.284000000    -4.658000000
H    -4.732000000     2.050000000    -4.260000000
O    -8.399000000    -2.888000000    -3.287000000
H    -8.293000000    -3.374000000    -2.469000000
H    -8.314000000    -1.969000000    -3.033000000
O    -8.164000000     1.398000000     0.574000000
H    -8.006000000     2.197000000     1.079000000
H    -7.858000000     1.608000000    -0.308000000
O    -0.756000000     3.349000000    -0.860000000
H    -0.660000000     2.535000000    -1.352000000
H    -1.420000000     3.153000000    -0.199000000
O    -2.728000000     4.637000000    -4.819000000
H    -2.678000000     4.796000000    -3.876000000
H    -2.249000000     5.368000000    -5.211000000
O    -5.015000000    -2.586000000    -5.256000000
H    -4.149000000    -2.994000000    -5.250000000
H    -5.621000000    -3.308000000    -5.087000000
O    -6.399000000    -0.919000000    -2.182000000
H    -5.497000000    -1.236000000    -2.139000000
H    -6.334000000    -0.069000000    -2.617000000
