215
-1467.52312
C    -2.055000000     3.245000000     2.944000000
H    -1.096000000     3.522000000     2.513000000
C    -2.056000000     2.051000000     3.705000000
C    -3.255000000     1.533000000     4.106000000
H    -3.214000000     0.723000000     4.830000000
C    -0.683000000     1.395000000     3.929000000
O     0.391000000     2.355000000     4.041000000
H    -0.473000000     0.880000000     2.980000000
O    -0.662000000     0.482000000     5.074000000
C    -0.066000000    -0.678000000     4.743000000
C    -0.977000000    -1.664000000     4.292000000
H    -2.020000000    -1.362000000     4.256000000
C    -0.483000000    -2.846000000     3.698000000
O    -1.469000000    -3.621000000     3.082000000
C     0.875000000    -3.123000000     3.728000000
C     1.545000000    -4.412000000     3.197000000
H     2.441000000    -4.799000000     3.687000000
C     1.804000000    -4.245000000     1.699000000
C     3.037000000    -3.851000000     1.258000000
H     3.866000000    -3.601000000     1.915000000
H     0.857000000    -5.247000000     3.342000000
C     1.778000000    -2.127000000     4.142000000
H     2.858000000    -2.247000000     4.100000000
C     1.297000000    -0.891000000     4.653000000
C     2.218000000     0.304000000     4.980000000
H     3.155000000    -0.140000000     5.325000000
H     1.893000000     0.895000000     5.839000000
C     2.470000000     1.177000000     3.776000000
C     3.656000000     1.049000000     3.018000000
H     4.356000000     0.282000000     3.338000000
C     1.580000000     2.143000000     3.377000000
C     1.776000000     2.976000000     2.260000000
H     1.101000000     3.772000000     1.955000000
C     2.953000000     2.860000000     1.552000000
O     3.231000000     3.681000000     0.480000000
C     2.995000000     3.045000000    -0.814000000
C     2.128000000     3.969000000    -1.652000000
C     2.124000000     3.751000000    -3.023000000
H     2.710000000     2.903000000    -3.370000000
C     1.394000000     4.980000000    -1.086000000
H     1.503000000     5.216000000    -0.030000000
O     4.186000000     2.567000000    -1.476000000
H     2.397000000     2.137000000    -0.646000000
C     3.929000000     1.876000000     1.937000000
C     5.263000000     1.686000000     1.140000000
H     6.114000000     1.176000000     1.596000000
H     5.577000000     2.640000000     0.710000000
C     5.003000000     0.750000000     0.005000000
C     5.183000000    -0.651000000     0.154000000
H     5.544000000    -1.097000000     1.078000000
C     4.589000000     1.210000000    -1.230000000
C     4.363000000     0.277000000    -2.256000000
H     3.975000000     0.654000000    -3.199000000
C     4.349000000    -1.081000000    -2.038000000
O     3.881000000    -1.762000000    -3.115000000
C     2.498000000    -2.239000000    -2.904000000
C     1.554000000    -2.092000000    -4.078000000
C     1.820000000    -1.126000000    -5.020000000
H     2.749000000    -0.588000000    -4.845000000
C     0.315000000    -2.746000000    -4.110000000
H     0.030000000    -3.458000000    -3.340000000
O     2.442000000    -3.508000000    -2.319000000
H     1.993000000    -1.503000000    -2.262000000
C     4.725000000    -1.516000000    -0.795000000
C     4.621000000    -3.024000000    -0.471000000
H     5.341000000    -3.237000000     0.321000000
H     4.974000000    -3.595000000    -1.333000000
C     3.293000000    -3.526000000    -0.057000000
C     2.288000000    -3.803000000    -0.999000000
C     1.052000000    -4.313000000    -0.586000000
H     0.302000000    -4.621000000    -1.310000000
C     0.770000000    -4.498000000     0.785000000
O    -0.519000000    -4.797000000     1.167000000
C    -1.349000000    -3.659000000     1.672000000
H    -0.865000000    -2.808000000     1.172000000
C    -2.795000000    -3.607000000     1.210000000
C    -3.829000000    -2.908000000     1.922000000
H    -3.641000000    -2.331000000     2.824000000
C    -3.106000000    -4.275000000     0.025000000
H    -2.332000000    -4.723000000    -0.592000000
C    -4.385000000    -4.237000000    -0.500000000
O    -4.721000000    -4.703000000    -1.781000000
C    -5.407000000    -3.635000000     0.300000000
H    -6.421000000    -3.710000000    -0.085000000
C    -5.181000000    -3.097000000     1.543000000
O    -6.250000000    -2.503000000     2.240000000
C    -6.060000000    -1.793000000     3.427000000
C    -5.740000000    -0.468000000     3.324000000
H    -5.558000000    -0.098000000     2.318000000
C    -6.280000000    -2.325000000     4.643000000
H    -6.489000000    -3.389000000     4.710000000
C    -6.315000000    -1.520000000     5.804000000
H    -6.597000000    -1.962000000     6.756000000
C    -5.960000000    -0.136000000     5.790000000
H    -5.843000000     0.441000000     6.703000000
C    -5.740000000     0.396000000     4.516000000
O    -5.568000000     1.723000000     4.388000000
C    -4.391000000     2.277000000     3.906000000
C    -4.462000000     3.369000000     3.069000000
H    -5.412000000     3.861000000     2.877000000
C    -3.240000000     3.890000000     2.537000000
O    -3.248000000     4.812000000     1.506000000
C    -2.238000000     5.761000000     1.280000000
C    -1.531000000     5.842000000     0.117000000
H    -1.761000000     5.181000000    -0.714000000
C    -2.049000000     6.733000000     2.230000000
H    -2.541000000     6.761000000     3.199000000
C    -1.112000000     7.772000000     2.039000000
H    -1.022000000     8.534000000     2.809000000
C    -0.435000000     7.893000000     0.858000000
H     0.369000000     8.616000000     0.748000000
C    -0.641000000     6.919000000    -0.103000000
O     0.071000000     6.994000000    -1.321000000
C     0.711000000     5.883000000    -1.867000000
C     0.743000000     5.740000000    -3.227000000
H     0.276000000     6.521000000    -3.821000000
C     1.342000000     4.594000000    -3.824000000
O     1.241000000     4.463000000    -5.177000000
C     1.873000000     3.506000000    -5.858000000
C     1.263000000     2.296000000    -6.036000000
H     0.245000000     2.122000000    -5.697000000
C     3.102000000     3.773000000    -6.411000000
H     3.584000000     4.735000000    -6.257000000
C     3.794000000     2.745000000    -7.040000000
H     4.838000000     2.868000000    -7.319000000
C     3.232000000     1.479000000    -7.203000000
H     3.766000000     0.675000000    -7.703000000
C     1.952000000     1.259000000    -6.750000000
O     1.325000000     0.039000000    -7.016000000
C     0.905000000    -0.808000000    -6.037000000
C    -0.297000000    -1.483000000    -6.107000000
H    -0.997000000    -1.301000000    -6.919000000
C    -0.592000000    -2.452000000    -5.187000000
O    -1.787000000    -3.045000000    -5.217000000
C    -2.179000000    -4.081000000    -4.395000000
C    -1.976000000    -5.388000000    -4.862000000
H    -1.322000000    -5.536000000    -5.717000000
C    -2.663000000    -6.498000000    -4.302000000
H    -2.569000000    -7.527000000    -4.640000000
C    -3.544000000    -6.282000000    -3.258000000
H    -3.999000000    -7.048000000    -2.635000000
C    -3.801000000    -4.943000000    -2.793000000
C    -3.151000000    -3.871000000    -3.388000000
H    -3.363000000    -2.876000000    -3.007000000
C    -0.745000000     0.214000000    -2.424000000
H    -0.399000000     0.417000000    -3.435000000
C     0.149000000     0.202000000    -1.374000000
H     1.183000000     0.482000000    -1.558000000
C    -0.232000000    -0.151000000    -0.086000000
H     0.431000000    -0.018000000     0.745000000
C    -1.569000000    -0.445000000     0.156000000
H    -1.859000000    -0.551000000     1.198000000
C    -2.501000000    -0.479000000    -0.854000000
H    -3.513000000    -0.822000000    -0.656000000
C    -2.088000000    -0.117000000    -2.193000000
C    -3.080000000    -0.096000000    -3.411000000
O    -4.287000000    -0.223000000    -3.150000000
O    -2.705000000     0.193000000    -4.561000000
O    -5.320000000    -1.384000000    -5.586000000
H    -4.592000000    -1.662000000    -6.142000000
H    -4.919000000    -0.804000000    -4.939000000
O    -6.788000000     4.238000000    -3.138000000
H    -7.531000000     3.635000000    -3.138000000
H    -6.055000000     3.715000000    -3.463000000
O    -0.537000000     1.751000000    -9.712000000
H    -0.925000000     1.642000000    -8.844000000
H    -1.287000000     1.845000000   -10.300000000
O    -4.697000000     2.195000000    -0.192000000
H    -3.819000000     2.282000000    -0.562000000
H    -5.135000000     3.015000000    -0.419000000
O    -1.955000000     1.363000000    -7.248000000
H    -2.765000000     0.944000000    -7.538000000
H    -1.756000000     0.945000000    -6.410000000
O    -4.656000000     3.558000000    -8.964000000
H    -4.947000000     2.969000000    -8.268000000
H    -5.332000000     4.235000000    -9.003000000
O    -9.069000000    -0.893000000    -1.747000000
H    -9.437000000    -1.303000000    -0.965000000
H    -8.165000000    -0.689000000    -1.508000000
O    -1.760000000     4.814000000    -5.677000000
H    -2.017000000     4.493000000    -6.541000000
H    -0.843000000     5.069000000    -5.780000000
O    -8.155000000     2.008000000    -1.416000000
H    -7.361000000     1.561000000    -1.710000000
H    -8.766000000     1.916000000    -2.146000000
O    -4.929000000     2.379000000    -3.956000000
H    -4.933000000     1.424000000    -3.888000000
H    -4.139000000     2.648000000    -3.487000000
O    -4.645000000    -2.581000000    -7.989000000
H    -4.287000000    -3.468000000    -7.959000000
H    -5.577000000    -2.705000000    -8.168000000
O    -7.216000000    -3.433000000    -3.569000000
H    -6.297000000    -3.437000000    -3.300000000
H    -7.487000000    -2.519000000    -3.482000000
O    -1.641000000     2.576000000    -1.024000000
H    -1.490000000     2.966000000    -1.885000000
H    -1.286000000     1.690000000    -1.096000000
O    -4.420000000     0.363000000    -8.081000000
H    -4.047000000    -0.518000000    -8.098000000
H    -4.993000000     0.395000000    -8.847000000
O    -5.602000000     2.260000000    -6.687000000
H    -5.118000000     1.475000000    -6.945000000
H    -5.325000000     2.427000000    -5.786000000
O    -1.760000000     2.730000000    -3.913000000
H    -1.856000000     3.563000000    -4.374000000
H    -2.007000000     2.069000000    -4.559000000
O    -8.043000000    -2.052000000    -6.169000000
H    -8.498000000    -1.597000000    -5.460000000
H    -7.219000000    -1.575000000    -6.269000000
O    -6.412000000    -0.046000000    -1.578000000
H    -5.747000000    -0.188000000    -2.252000000
H    -5.937000000     0.369000000    -0.858000000
O    -8.590000000     2.933000000    -6.450000000
H    -7.683000000     2.718000000    -6.232000000
H    -8.951000000     2.121000000    -6.804000000
