215
-1449.55903
C    -1.303000000     3.803000000     2.836000000
H    -0.282000000     4.169000000     2.759000000
C    -1.450000000     2.560000000     3.436000000
C    -2.705000000     1.992000000     3.485000000
H    -2.838000000     1.031000000     3.977000000
C    -0.184000000     1.690000000     3.635000000
O     0.837000000     2.385000000     4.217000000
H     0.126000000     1.277000000     2.663000000
O    -0.416000000     0.636000000     4.570000000
C    -0.056000000    -0.660000000     4.311000000
C    -0.981000000    -1.519000000     3.776000000
H    -1.961000000    -1.116000000     3.531000000
C    -0.540000000    -2.818000000     3.472000000
O    -1.524000000    -3.715000000     3.044000000
C     0.804000000    -3.184000000     3.539000000
C     1.261000000    -4.548000000     3.035000000
H     2.237000000    -4.818000000     3.444000000
C     1.311000000    -4.575000000     1.518000000
C     2.576000000    -4.226000000     0.948000000
H     3.452000000    -3.951000000     1.529000000
H     0.528000000    -5.299000000     3.337000000
C     1.735000000    -2.312000000     4.064000000
H     2.798000000    -2.535000000     4.044000000
C     1.268000000    -1.071000000     4.470000000
C     2.266000000    -0.037000000     5.149000000
H     3.133000000    -0.483000000     5.641000000
H     1.722000000     0.481000000     5.942000000
C     2.829000000     0.911000000     4.099000000
C     3.815000000     0.429000000     3.218000000
H     4.336000000    -0.521000000     3.306000000
C     2.154000000     2.096000000     3.733000000
C     2.572000000     2.918000000     2.649000000
H     2.052000000     3.801000000     2.285000000
C     3.664000000     2.440000000     1.887000000
O     3.961000000     3.167000000     0.785000000
C     3.407000000     2.719000000    -0.474000000
C     2.805000000     3.759000000    -1.371000000
C     2.925000000     3.723000000    -2.701000000
H     3.353000000     2.848000000    -3.183000000
C     2.225000000     4.921000000    -0.822000000
H     2.172000000     5.063000000     0.254000000
O     4.378000000     1.988000000    -1.196000000
H     2.632000000     2.000000000    -0.168000000
C     4.172000000     1.131000000     2.117000000
C     5.327000000     0.581000000     1.233000000
H     5.913000000    -0.080000000     1.874000000
H     5.985000000     1.361000000     0.846000000
C     4.816000000    -0.167000000     0.053000000
C     4.788000000    -1.552000000     0.062000000
H     5.065000000    -2.061000000     0.981000000
C     4.422000000     0.555000000    -1.093000000
C     3.950000000    -0.131000000    -2.214000000
H     3.606000000     0.393000000    -3.102000000
C     3.813000000    -1.517000000    -2.166000000
O     3.193000000    -2.164000000    -3.208000000
C     1.833000000    -2.515000000    -2.847000000
C     0.762000000    -2.135000000    -3.904000000
C     1.080000000    -1.124000000    -4.759000000
H     2.050000000    -0.702000000    -5.010000000
C    -0.549000000    -2.673000000    -3.930000000
H    -0.779000000    -3.446000000    -3.201000000
O     1.795000000    -3.899000000    -2.536000000
H     1.566000000    -1.929000000    -1.955000000
C     4.253000000    -2.183000000    -1.021000000
C     4.129000000    -3.730000000    -0.995000000
H     4.923000000    -4.074000000    -0.330000000
H     4.292000000    -4.261000000    -1.936000000
C     2.762000000    -4.092000000    -0.420000000
C     1.681000000    -4.263000000    -1.216000000
C     0.390000000    -4.606000000    -0.685000000
H    -0.421000000    -4.504000000    -1.401000000
C     0.208000000    -4.741000000     0.673000000
O    -1.067000000    -4.838000000     1.156000000
C    -1.746000000    -3.652000000     1.649000000
H    -1.236000000    -2.726000000     1.343000000
C    -3.217000000    -3.650000000     1.318000000
C    -4.140000000    -3.062000000     2.132000000
H    -3.864000000    -2.556000000     3.055000000
C    -3.624000000    -4.279000000     0.061000000
H    -2.864000000    -4.690000000    -0.599000000
C    -4.946000000    -4.279000000    -0.309000000
O    -5.300000000    -4.856000000    -1.522000000
C    -5.844000000    -3.652000000     0.479000000
H    -6.899000000    -3.787000000     0.254000000
C    -5.478000000    -3.056000000     1.686000000
O    -6.419000000    -2.427000000     2.477000000
C    -6.057000000    -1.388000000     3.344000000
C    -5.670000000    -0.178000000     2.819000000
H    -5.561000000    -0.158000000     1.737000000
C    -6.246000000    -1.519000000     4.704000000
H    -6.476000000    -2.488000000     5.141000000
C    -6.105000000    -0.421000000     5.565000000
H    -6.142000000    -0.488000000     6.650000000
C    -5.662000000     0.788000000     4.960000000
H    -5.461000000     1.646000000     5.595000000
C    -5.463000000     0.931000000     3.592000000
O    -5.143000000     2.109000000     3.063000000
C    -3.869000000     2.658000000     3.081000000
C    -3.690000000     3.921000000     2.614000000
H    -4.549000000     4.548000000     2.389000000
C    -2.428000000     4.503000000     2.456000000
O    -2.413000000     5.829000000     1.974000000
C    -1.226000000     6.598000000     1.755000000
C    -0.581000000     6.363000000     0.537000000
H    -0.996000000     5.619000000    -0.138000000
C    -0.710000000     7.492000000     2.690000000
H    -1.184000000     7.652000000     3.655000000
C     0.445000000     8.219000000     2.408000000
H     0.780000000     9.018000000     3.064000000
C     1.018000000     7.984000000     1.142000000
H     1.952000000     8.454000000     0.846000000
C     0.563000000     7.036000000     0.266000000
O     1.104000000     6.977000000    -1.034000000
C     1.605000000     5.848000000    -1.609000000
C     1.543000000     5.703000000    -2.988000000
H     1.102000000     6.450000000    -3.644000000
C     2.223000000     4.613000000    -3.548000000
O     2.261000000     4.585000000    -4.899000000
C     2.271000000     3.564000000    -5.806000000
C     1.238000000     2.608000000    -5.732000000
H     0.378000000     2.847000000    -5.111000000
C     3.282000000     3.391000000    -6.736000000
H     4.184000000     3.997000000    -6.716000000
C     3.338000000     2.273000000    -7.559000000
H     4.158000000     2.038000000    -8.232000000
C     2.412000000     1.275000000    -7.373000000
H     2.410000000     0.382000000    -7.993000000
C     1.329000000     1.437000000    -6.471000000
O     0.312000000     0.523000000    -6.485000000
C     0.061000000    -0.590000000    -5.627000000
C    -1.201000000    -1.117000000    -5.587000000
H    -1.962000000    -0.776000000    -6.284000000
C    -1.562000000    -2.088000000    -4.711000000
O    -2.824000000    -2.530000000    -4.766000000
C    -3.195000000    -3.742000000    -4.237000000
C    -2.797000000    -4.957000000    -4.872000000
H    -2.029000000    -4.917000000    -5.640000000
C    -3.365000000    -6.131000000    -4.358000000
H    -3.116000000    -7.064000000    -4.857000000
C    -4.248000000    -6.132000000    -3.284000000
H    -4.615000000    -7.085000000    -2.911000000
C    -4.492000000    -4.940000000    -2.650000000
C    -4.059000000    -3.745000000    -3.166000000
H    -4.354000000    -2.768000000    -2.793000000
C    -0.674000000     0.974000000    -2.738000000
H    -0.734000000     1.519000000    -3.677000000
C     0.542000000     0.694000000    -2.052000000
H     1.523000000     0.951000000    -2.443000000
C     0.468000000     0.099000000    -0.825000000
H     1.348000000    -0.234000000    -0.383000000
C    -0.695000000    -0.265000000    -0.253000000
H    -0.684000000    -0.887000000     0.639000000
C    -1.914000000    -0.035000000    -1.003000000
H    -2.914000000    -0.256000000    -0.639000000
C    -1.914000000     0.678000000    -2.186000000
C    -3.178000000     1.128000000    -2.950000000
O    -4.242000000     0.952000000    -2.433000000
O    -3.138000000     1.680000000    -4.042000000
O    -3.313000000    -0.411000000    -8.283000000
H    -4.108000000    -0.838000000    -7.963000000
H    -3.568000000     0.503000000    -8.409000000
O    -5.183000000    -0.220000000    -5.075000000
H    -4.649000000    -0.996000000    -4.905000000
H    -4.902000000     0.414000000    -4.414000000
O    -5.103000000     4.912000000    -1.789000000
H    -4.736000000     5.156000000    -2.639000000
H    -4.660000000     5.485000000    -1.163000000
O    -5.679000000     2.459000000    -0.883000000
H    -5.714000000     3.315000000    -1.309000000
H    -5.173000000     1.913000000    -1.484000000
O    -5.005000000    -2.435000000    -7.287000000
H    -5.585000000    -3.096000000    -6.909000000
H    -4.793000000    -1.855000000    -6.556000000
O    -2.370000000     2.153000000    -6.389000000
H    -2.750000000     1.998000000    -5.524000000
H    -1.675000000     1.500000000    -6.466000000
O    -6.853000000     1.412000000    -6.190000000
H    -6.850000000     2.104000000    -5.528000000
H    -6.315000000     0.717000000    -5.812000000
O    -8.209000000     4.582000000    -2.954000000
H    -7.342000000     4.176000000    -2.978000000
H    -8.034000000     5.512000000    -2.814000000
O    -1.351000000     6.537000000    -5.302000000
H    -1.531000000     5.866000000    -4.645000000
H    -2.155000000     7.055000000    -5.343000000
O    -7.620000000     0.800000000    -0.627000000
H    -8.162000000     1.210000000    -1.301000000
H    -6.905000000     1.420000000    -0.486000000
O    -4.221000000     2.323000000    -8.415000000
H    -3.564000000     2.570000000    -7.764000000
H    -4.721000000     3.124000000    -8.567000000
O    -5.260000000     5.614000000    -4.631000000
H    -5.970000000     6.221000000    -4.838000000
H    -4.474000000     6.040000000    -4.973000000
O    -1.189000000     4.396000000    -7.199000000
H    -1.265000000     5.033000000    -6.488000000
H    -1.476000000     3.570000000    -6.811000000
O    -5.862000000     2.988000000    -3.932000000
H    -5.506000000     3.782000000    -4.329000000
H    -5.099000000     2.539000000    -3.567000000
O    -8.289000000    -2.740000000    -3.958000000
H    -8.639000000    -3.335000000    -3.295000000
H    -7.586000000    -2.268000000    -3.510000000
O    -7.070000000     3.950000000     1.004000000
H    -6.728000000     4.782000000     0.676000000
H    -6.394000000     3.309000000     0.781000000
O    -2.400000000     3.407000000    -0.715000000
H    -2.329000000     2.489000000    -0.452000000
H    -3.131000000     3.748000000    -0.199000000
O    -1.994000000     4.226000000    -3.551000000
H    -2.693000000     3.611000000    -3.772000000
H    -1.585000000     3.854000000    -2.770000000
O    -6.557000000    -1.370000000    -2.325000000
H    -5.635000000    -1.165000000    -2.480000000
H    -6.818000000    -0.780000000    -1.618000000
