215
-1440.82422
C    -1.214000000     3.442000000     3.846000000
H    -0.303000000     3.890000000     3.456000000
C    -1.167000000     2.156000000     4.500000000
C    -2.385000000     1.640000000     4.834000000
H    -2.484000000     0.622000000     5.202000000
C     0.125000000     1.310000000     4.257000000
O     1.327000000     2.118000000     4.382000000
H     0.221000000     1.024000000     3.199000000
O     0.245000000     0.177000000     5.146000000
C     0.528000000    -1.007000000     4.525000000
C    -0.448000000    -1.801000000     4.043000000
H    -1.472000000    -1.530000000     4.289000000
C    -0.088000000    -2.959000000     3.323000000
O    -1.097000000    -3.636000000     2.709000000
C     1.279000000    -3.230000000     3.145000000
C     1.707000000    -4.455000000     2.269000000
H     2.728000000    -4.705000000     2.567000000
C     1.696000000    -4.300000000     0.752000000
C     2.923000000    -3.987000000     0.049000000
H     3.763000000    -3.729000000     0.687000000
H     1.071000000    -5.317000000     2.480000000
C     2.226000000    -2.422000000     3.732000000
H     3.282000000    -2.650000000     3.617000000
C     1.852000000    -1.268000000     4.290000000
C     2.909000000    -0.274000000     4.746000000
H     3.848000000    -0.773000000     4.990000000
H     2.629000000     0.338000000     5.605000000
C     3.244000000     0.713000000     3.701000000
C     4.177000000     0.434000000     2.642000000
H     4.757000000    -0.474000000     2.789000000
C     2.424000000     1.886000000     3.528000000
C     2.671000000     2.786000000     2.503000000
H     1.982000000     3.607000000     2.327000000
C     3.626000000     2.484000000     1.541000000
O     3.695000000     3.241000000     0.413000000
C     2.928000000     2.779000000    -0.723000000
C     2.053000000     3.956000000    -1.248000000
C     1.479000000     3.871000000    -2.523000000
H     1.634000000     2.952000000    -3.083000000
C     1.872000000     5.116000000    -0.494000000
H     2.237000000     5.154000000     0.529000000
O     3.902000000     2.200000000    -1.645000000
H     2.341000000     1.880000000    -0.487000000
C     4.421000000     1.323000000     1.587000000
C     5.449000000     0.879000000     0.482000000
H     6.252000000     0.311000000     0.957000000
H     6.098000000     1.687000000     0.136000000
C     4.895000000     0.127000000    -0.733000000
C     5.037000000    -1.255000000    -0.898000000
H     5.558000000    -1.875000000    -0.173000000
C     4.172000000     0.862000000    -1.691000000
C     3.632000000     0.223000000    -2.833000000
H     2.986000000     0.822000000    -3.470000000
C     3.637000000    -1.184000000    -2.910000000
O     2.935000000    -1.829000000    -3.918000000
C     1.652000000    -2.344000000    -3.520000000
C     0.574000000    -1.939000000    -4.476000000
C     0.727000000    -0.768000000    -5.220000000
H     1.641000000    -0.191000000    -5.104000000
C    -0.515000000    -2.684000000    -4.624000000
H    -0.688000000    -3.573000000    -4.022000000
O     1.731000000    -3.822000000    -3.345000000
H     1.404000000    -2.015000000    -2.501000000
C     4.336000000    -1.906000000    -1.906000000
C     4.218000000    -3.466000000    -1.892000000
H     5.028000000    -3.985000000    -1.374000000
H     4.258000000    -3.657000000    -2.966000000
C     2.963000000    -3.897000000    -1.300000000
C     1.752000000    -4.147000000    -2.040000000
C     0.646000000    -4.489000000    -1.342000000
H    -0.288000000    -4.596000000    -1.888000000
C     0.572000000    -4.534000000     0.049000000
O    -0.616000000    -4.714000000     0.738000000
C    -1.256000000    -3.534000000     1.319000000
H    -0.707000000    -2.674000000     0.907000000
C    -2.798000000    -3.489000000     0.928000000
C    -3.745000000    -2.937000000     1.791000000
H    -3.339000000    -2.549000000     2.722000000
C    -3.263000000    -3.941000000    -0.323000000
H    -2.538000000    -4.215000000    -1.085000000
C    -4.628000000    -3.925000000    -0.675000000
O    -5.209000000    -4.402000000    -1.845000000
C    -5.527000000    -3.377000000     0.224000000
H    -6.582000000    -3.357000000    -0.039000000
C    -5.085000000    -2.888000000     1.459000000
O    -5.965000000    -2.163000000     2.246000000
C    -5.778000000    -1.596000000     3.544000000
C    -5.364000000    -0.263000000     3.598000000
H    -5.210000000     0.268000000     2.662000000
C    -6.006000000    -2.270000000     4.741000000
H    -6.366000000    -3.296000000     4.717000000
C    -5.797000000    -1.690000000     5.986000000
H    -5.965000000    -2.271000000     6.890000000
C    -5.359000000    -0.344000000     5.970000000
H    -5.088000000     0.285000000     6.815000000
C    -5.082000000     0.331000000     4.807000000
O    -4.708000000     1.676000000     4.869000000
C    -3.590000000     2.265000000     4.516000000
C    -3.549000000     3.581000000     4.181000000
H    -4.431000000     4.216000000     4.200000000
C    -2.417000000     4.184000000     3.697000000
O    -2.440000000     5.432000000     3.025000000
C    -1.361000000     6.192000000     2.728000000
C    -1.087000000     6.376000000     1.416000000
H    -1.720000000     5.913000000     0.663000000
C    -0.604000000     6.706000000     3.796000000
H    -0.841000000     6.394000000     4.810000000
C     0.465000000     7.563000000     3.472000000
H     1.166000000     8.023000000     4.164000000
C     0.823000000     7.724000000     2.131000000
H     1.666000000     8.327000000     1.804000000
C     0.079000000     7.090000000     1.088000000
O     0.644000000     7.150000000    -0.212000000
C     0.981000000     6.093000000    -0.952000000
C     0.443000000     6.038000000    -2.232000000
H    -0.196000000     6.873000000    -2.508000000
C     0.751000000     4.937000000    -3.067000000
O     0.271000000     4.939000000    -4.384000000
C     0.801000000     3.996000000    -5.257000000
C     0.129000000     2.778000000    -5.430000000
H    -0.835000000     2.622000000    -4.953000000
C     1.961000000     4.282000000    -5.879000000
H     2.485000000     5.218000000    -5.699000000
C     2.472000000     3.346000000    -6.797000000
H     3.393000000     3.596000000    -7.318000000
C     1.838000000     2.127000000    -6.998000000
H     2.195000000     1.467000000    -7.784000000
C     0.674000000     1.864000000    -6.348000000
O    -0.112000000     0.804000000    -6.796000000
C    -0.243000000    -0.327000000    -6.095000000
C    -1.293000000    -1.123000000    -6.313000000
H    -1.954000000    -0.831000000    -7.126000000
C    -1.468000000    -2.276000000    -5.524000000
O    -2.671000000    -2.971000000    -5.694000000
C    -3.037000000    -3.982000000    -4.850000000
C    -2.658000000    -5.278000000    -5.101000000
H    -1.974000000    -5.507000000    -5.915000000
C    -3.063000000    -6.324000000    -4.283000000
H    -2.757000000    -7.349000000    -4.478000000
C    -3.950000000    -6.093000000    -3.255000000
H    -4.380000000    -6.881000000    -2.643000000
C    -4.299000000    -4.749000000    -2.887000000
C    -3.926000000    -3.734000000    -3.757000000
H    -4.253000000    -2.714000000    -3.570000000
C    -1.261000000    -0.068000000    -1.687000000
H    -1.140000000    -0.383000000    -2.720000000
C    -0.159000000    -0.172000000    -0.877000000
H     0.792000000    -0.418000000    -1.342000000
C    -0.227000000     0.137000000     0.479000000
H     0.678000000     0.090000000     1.077000000
C    -1.486000000     0.313000000     1.064000000
H    -1.590000000     0.563000000     2.117000000
C    -2.577000000     0.382000000     0.229000000
H    -3.567000000     0.581000000     0.633000000
C    -2.496000000     0.089000000    -1.113000000
C    -3.725000000     0.173000000    -2.035000000
O    -4.768000000     0.639000000    -1.624000000
O    -3.599000000     0.080000000    -3.270000000
O    -5.257000000     1.262000000    -7.404000000
H    -4.559000000     1.015000000    -6.797000000
H    -6.038000000     1.332000000    -6.856000000
O    -5.222000000    -1.050000000    -5.077000000
H    -5.698000000    -0.360000000    -4.615000000
H    -4.331000000    -1.001000000    -4.729000000
O    -5.186000000     3.266000000    -0.565000000
H    -5.876000000     3.643000000    -1.111000000
H    -5.105000000     2.363000000    -0.872000000
O    -9.581000000    -0.258000000    -0.466000000
H    -9.928000000    -1.010000000     0.014000000
H    -8.722000000    -0.547000000    -0.774000000
O    -6.163000000     4.016000000    -3.811000000
H    -6.459000000     4.040000000    -4.721000000
H    -5.214000000     4.126000000    -3.865000000
O    -3.458000000     1.595000000    -5.365000000
H    -3.455000000     2.468000000    -4.971000000
H    -3.362000000     0.998000000    -4.623000000
O    -7.998000000     2.061000000    -1.481000000
H    -7.726000000     1.569000000    -0.707000000
H    -7.671000000     1.546000000    -2.219000000
O    -6.697000000     3.604000000     2.148000000
H    -7.191000000     4.056000000     1.464000000
H    -5.945000000     3.227000000     1.692000000
O   -10.492000000     0.805000000    -2.714000000
H   -11.374000000     0.610000000    -2.396000000
H    -9.920000000     0.603000000    -1.973000000
O    -8.347000000    -3.556000000    -2.179000000
H    -8.283000000    -4.112000000    -1.402000000
H    -8.372000000    -4.171000000    -2.912000000
O    -4.601000000     5.816000000     0.710000000
H    -4.624000000     4.940000000     0.325000000
H    -4.102000000     5.709000000     1.520000000
O    -4.622000000    -2.234000000    -7.403000000
H    -3.841000000    -2.583000000    -6.974000000
H    -5.119000000    -1.821000000    -6.697000000
O    -6.462000000     0.986000000    -3.618000000
H    -6.390000000     1.941000000    -3.613000000
H    -5.765000000     0.691000000    -3.032000000
O    -9.118000000    -1.996000000    -4.685000000
H    -9.117000000    -2.673000000    -4.008000000
H    -8.451000000    -1.371000000    -4.400000000
O    -2.561000000     5.960000000    -2.773000000
H    -3.035000000     6.133000000    -3.586000000
H    -2.745000000     6.720000000    -2.221000000
O    -3.536000000     3.443000000    -3.470000000
H    -2.979000000     4.162000000    -3.173000000
H    -3.707000000     2.929000000    -2.681000000
O    -7.431000000     2.408000000    -5.935000000
H    -8.297000000     2.790000000    -6.072000000
H    -7.553000000     1.788000000    -5.216000000
O    -8.937000000    -2.382000000     1.456000000
H    -8.158000000    -1.960000000     1.092000000
H    -8.876000000    -2.224000000     2.398000000
O    -6.909000000    -0.993000000    -0.913000000
H    -6.065000000    -0.558000000    -0.792000000
H    -6.714000000    -1.743000000    -1.474000000
