215
-1471.42660
C    -1.589000000     3.455000000     3.270000000
H    -0.645000000     3.861000000     2.915000000
C    -1.560000000     2.217000000     3.976000000
C    -2.750000000     1.715000000     4.505000000
H    -2.700000000     0.750000000     5.002000000
C    -0.282000000     1.375000000     3.944000000
O     0.859000000     2.278000000     3.895000000
H    -0.229000000     0.812000000     3.001000000
O    -0.249000000     0.451000000     5.125000000
C     0.284000000    -0.764000000     4.787000000
C    -0.593000000    -1.751000000     4.473000000
H    -1.662000000    -1.572000000     4.545000000
C    -0.205000000    -2.952000000     3.883000000
O    -1.196000000    -3.703000000     3.262000000
C     1.137000000    -3.182000000     3.588000000
C     1.639000000    -4.485000000     3.008000000
H     2.644000000    -4.711000000     3.372000000
C     1.743000000    -4.366000000     1.500000000
C     2.956000000    -4.081000000     0.870000000
H     3.768000000    -3.950000000     1.580000000
H     1.027000000    -5.338000000     3.307000000
C     2.023000000    -2.123000000     3.922000000
H     3.087000000    -2.339000000     3.868000000
C     1.634000000    -0.895000000     4.489000000
C     2.600000000     0.242000000     4.887000000
H     3.413000000    -0.250000000     5.425000000
H     2.088000000     0.917000000     5.575000000
C     2.968000000     1.087000000     3.685000000
C     4.082000000     0.791000000     2.878000000
H     4.744000000    -0.041000000     3.104000000
C     1.964000000     1.959000000     3.179000000
C     2.224000000     2.809000000     2.095000000
H     1.583000000     3.651000000     1.851000000
C     3.378000000     2.585000000     1.338000000
O     3.602000000     3.343000000     0.213000000
C     3.136000000     2.803000000    -1.024000000
C     2.379000000     3.850000000    -1.889000000
C     2.476000000     3.894000000    -3.258000000
H     3.286000000     3.346000000    -3.731000000
C     1.383000000     4.655000000    -1.293000000
H     1.268000000     4.773000000    -0.219000000
O     4.212000000     2.113000000    -1.579000000
H     2.333000000     2.113000000    -0.726000000
C     4.234000000     1.507000000     1.692000000
C     5.424000000     1.097000000     0.817000000
H     6.112000000     0.501000000     1.421000000
H     6.018000000     1.953000000     0.489000000
C     4.907000000     0.226000000    -0.312000000
C     4.889000000    -1.189000000    -0.180000000
H     5.223000000    -1.643000000     0.750000000
C     4.395000000     0.781000000    -1.473000000
C     4.199000000    -0.035000000    -2.626000000
H     3.849000000     0.443000000    -3.538000000
C     4.162000000    -1.412000000    -2.476000000
O     3.434000000    -2.109000000    -3.399000000
C     2.120000000    -2.374000000    -2.990000000
C     1.057000000    -1.935000000    -3.997000000
C     1.327000000    -0.953000000    -5.000000000
H     2.337000000    -0.571000000    -5.125000000
C    -0.270000000    -2.343000000    -3.912000000
H    -0.419000000    -2.983000000    -3.045000000
O     1.911000000    -3.780000000    -2.595000000
H     1.877000000    -1.884000000    -2.036000000
C     4.512000000    -2.022000000    -1.232000000
C     4.489000000    -3.519000000    -0.983000000
H     5.284000000    -3.767000000    -0.277000000
H     4.698000000    -4.067000000    -1.904000000
C     3.146000000    -3.989000000    -0.470000000
C     2.034000000    -4.187000000    -1.259000000
C     0.807000000    -4.480000000    -0.662000000
H    -0.096000000    -4.584000000    -1.258000000
C     0.655000000    -4.494000000     0.660000000
O    -0.662000000    -4.666000000     1.082000000
C    -1.354000000    -3.687000000     1.824000000
H    -1.053000000    -2.709000000     1.421000000
C    -2.855000000    -3.784000000     1.502000000
C    -3.797000000    -3.088000000     2.311000000
H    -3.520000000    -2.554000000     3.216000000
C    -3.329000000    -4.326000000     0.341000000
H    -2.639000000    -4.804000000    -0.351000000
C    -4.671000000    -4.207000000    -0.035000000
O    -5.063000000    -4.688000000    -1.257000000
C    -5.602000000    -3.536000000     0.738000000
H    -6.597000000    -3.390000000     0.323000000
C    -5.165000000    -2.977000000     1.951000000
O    -6.065000000    -2.101000000     2.433000000
C    -5.852000000    -1.465000000     3.616000000
C    -5.679000000    -0.119000000     3.546000000
H    -5.618000000     0.418000000     2.603000000
C    -5.872000000    -2.226000000     4.781000000
H    -6.266000000    -3.237000000     4.716000000
C    -5.662000000    -1.536000000     6.014000000
H    -5.756000000    -2.035000000     6.974000000
C    -5.499000000    -0.164000000     5.970000000
H    -5.493000000     0.437000000     6.876000000
C    -5.361000000     0.521000000     4.761000000
O    -5.092000000     1.866000000     4.746000000
C    -3.911000000     2.424000000     4.277000000
C    -3.915000000     3.701000000     3.717000000
H    -4.856000000     4.236000000     3.620000000
C    -2.793000000     4.190000000     3.119000000
O    -2.905000000     5.438000000     2.447000000
C    -1.757000000     6.028000000     1.911000000
C    -1.573000000     5.986000000     0.514000000
H    -2.302000000     5.364000000     0.001000000
C    -0.876000000     6.790000000     2.650000000
H    -1.149000000     7.008000000     3.680000000
C     0.120000000     7.472000000     2.022000000
H     0.676000000     8.156000000     2.657000000
C     0.323000000     7.365000000     0.651000000
H     1.232000000     7.768000000     0.213000000
C    -0.497000000     6.578000000    -0.119000000
O    -0.325000000     6.307000000    -1.451000000
C     0.557000000     5.463000000    -2.078000000
C     0.703000000     5.502000000    -3.456000000
H     0.087000000     6.176000000    -4.045000000
C     1.629000000     4.739000000    -4.059000000
O     1.726000000     4.704000000    -5.411000000
C     1.988000000     3.502000000    -6.111000000
C     1.119000000     2.446000000    -6.124000000
H     0.202000000     2.498000000    -5.543000000
C     3.069000000     3.542000000    -7.043000000
H     3.792000000     4.350000000    -6.968000000
C     3.334000000     2.427000000    -7.860000000
H     4.106000000     2.388000000    -8.625000000
C     2.449000000     1.422000000    -7.857000000
H     2.494000000     0.570000000    -8.531000000
C     1.399000000     1.369000000    -6.908000000
O     0.565000000     0.253000000    -6.917000000
C     0.246000000    -0.502000000    -5.779000000
C    -1.025000000    -0.873000000    -5.621000000
H    -1.826000000    -0.364000000    -6.152000000
C    -1.307000000    -1.857000000    -4.675000000
O    -2.620000000    -1.958000000    -4.302000000
C    -3.229000000    -3.175000000    -3.964000000
C    -3.168000000    -4.292000000    -4.830000000
H    -2.590000000    -4.219000000    -5.748000000
C    -3.777000000    -5.493000000    -4.452000000
H    -3.822000000    -6.353000000    -5.115000000
C    -4.359000000    -5.671000000    -3.195000000
H    -4.878000000    -6.547000000    -2.816000000
C    -4.386000000    -4.559000000    -2.375000000
C    -3.895000000    -3.316000000    -2.794000000
H    -4.121000000    -2.393000000    -2.266000000
C    -1.572000000     0.737000000    -1.851000000
H    -1.358000000     1.119000000    -2.847000000
C    -0.449000000     0.356000000    -1.024000000
H     0.589000000     0.487000000    -1.318000000
C    -0.683000000    -0.139000000     0.236000000
H     0.170000000    -0.453000000     0.818000000
C    -1.957000000    -0.454000000     0.658000000
H    -2.120000000    -0.855000000     1.655000000
C    -3.079000000    -0.159000000    -0.163000000
H    -4.074000000    -0.369000000     0.222000000
C    -2.850000000     0.440000000    -1.443000000
C    -3.984000000     0.743000000    -2.340000000
O    -5.018000000     0.142000000    -2.164000000
O    -3.914000000     1.690000000    -3.120000000
O    -3.998000000     1.385000000    -7.445000000
H    -4.668000000     1.592000000    -6.794000000
H    -3.452000000     2.171000000    -7.486000000
O    -5.256000000    -0.859000000    -4.698000000
H    -5.260000000    -0.481000000    -3.818000000
H    -4.412000000    -1.306000000    -4.762000000
O    -6.291000000     2.010000000    -0.245000000
H    -5.671000000     2.722000000    -0.088000000
H    -5.938000000     1.548000000    -1.005000000
O    -6.390000000     5.192000000    -3.153000000
H    -6.735000000     6.062000000    -2.953000000
H    -7.146000000     4.610000000    -3.073000000
O    -2.622000000     3.158000000    -4.868000000
H    -3.332000000     3.799000000    -4.862000000
H    -2.839000000     2.554000000    -4.157000000
O    -8.049000000     1.386000000    -3.464000000
H    -7.785000000     0.557000000    -3.064000000
H    -7.362000000     1.573000000    -4.103000000
O    -8.889000000     3.981000000    -3.080000000
H    -9.237000000     3.960000000    -3.971000000
H    -8.620000000     3.079000000    -2.906000000
O    -8.679000000     0.854000000     0.679000000
H    -9.345000000     1.318000000     0.172000000
H    -7.872000000     1.344000000     0.518000000
O    -4.616000000     4.983000000    -5.064000000
H    -4.603000000     5.821000000    -5.526000000
H    -4.987000000     5.188000000    -4.206000000
O    -5.250000000     4.593000000    -0.587000000
H    -5.678000000     5.263000000    -1.120000000
H    -4.417000000     4.431000000    -1.030000000
O    -6.621000000    -1.488000000    -6.994000000
H    -7.522000000    -1.559000000    -6.679000000
H    -6.118000000    -1.225000000    -6.223000000
O    -1.499000000     4.210000000    -7.208000000
H    -1.797000000     3.692000000    -6.459000000
H    -2.288000000     4.348000000    -7.733000000
O    -5.727000000     2.171000000    -5.069000000
H    -5.512000000     3.102000000    -5.014000000
H    -5.113000000     1.747000000    -4.471000000
O    -7.634000000    -3.763000000    -2.580000000
H    -8.489000000    -3.609000000    -2.178000000
H    -7.121000000    -2.986000000    -2.356000000
O    -2.084000000     2.742000000     0.355000000
H    -2.073000000     1.817000000     0.108000000
H    -1.590000000     2.776000000     1.175000000
O    -3.445000000    -1.424000000    -7.684000000
H    -3.712000000    -0.511000000    -7.583000000
H    -4.092000000    -1.920000000    -7.182000000
O    -3.098000000     4.201000000    -2.050000000
H    -3.340000000     3.563000000    -2.722000000
H    -2.606000000     3.693000000    -1.405000000
O    -7.827000000     2.310000000    -7.216000000
H    -7.081000000     2.775000000    -6.838000000
H    -7.793000000     1.440000000    -6.819000000
O    -7.581000000    -1.057000000    -1.487000000
H    -6.646000000    -0.994000000    -1.684000000
H    -7.672000000    -0.653000000    -0.624000000
