215
-1453.63833
C    -1.541000000     3.811000000     3.585000000
H    -0.628000000     4.386000000     3.714000000
C    -1.458000000     2.427000000     3.678000000
C    -2.571000000     1.577000000     3.681000000
H    -2.460000000     0.497000000     3.743000000
C    -0.116000000     1.766000000     3.712000000
O     0.922000000     2.776000000     4.141000000
H     0.038000000     1.372000000     2.697000000
O    -0.088000000     0.700000000     4.668000000
C     0.624000000    -0.432000000     4.388000000
C    -0.153000000    -1.526000000     4.182000000
H    -1.229000000    -1.445000000     4.310000000
C     0.406000000    -2.731000000     3.812000000
O    -0.430000000    -3.748000000     3.516000000
C     1.831000000    -2.806000000     3.653000000
C     2.509000000    -4.067000000     3.128000000
H     3.540000000    -4.071000000     3.489000000
C     2.449000000    -4.012000000     1.614000000
C     3.510000000    -3.604000000     0.841000000
H     4.506000000    -3.462000000     1.253000000
H     1.937000000    -4.937000000     3.457000000
C     2.611000000    -1.691000000     4.021000000
H     3.683000000    -1.838000000     3.924000000
C     2.015000000    -0.479000000     4.442000000
C     2.870000000     0.758000000     4.833000000
H     3.812000000     0.395000000     5.249000000
H     2.425000000     1.310000000     5.664000000
C     2.992000000     1.690000000     3.685000000
C     4.036000000     1.492000000     2.733000000
H     4.755000000     0.709000000     2.965000000
C     2.103000000     2.702000000     3.435000000
C     2.161000000     3.448000000     2.306000000
H     1.340000000     4.144000000     2.153000000
C     3.111000000     3.218000000     1.341000000
O     2.993000000     3.841000000     0.090000000
C     2.641000000     3.129000000    -1.081000000
C     1.518000000     3.696000000    -1.905000000
C     1.378000000     3.488000000    -3.309000000
H     2.124000000     2.908000000    -3.846000000
C     0.518000000     4.440000000    -1.271000000
H     0.655000000     4.470000000    -0.193000000
O     3.838000000     2.845000000    -1.885000000
H     2.285000000     2.152000000    -0.725000000
C     4.100000000     2.218000000     1.525000000
C     5.214000000     1.929000000     0.544000000
H     6.195000000     1.631000000     0.922000000
H     5.485000000     2.857000000     0.036000000
C     4.856000000     1.023000000    -0.626000000
C     5.039000000    -0.397000000    -0.494000000
H     5.744000000    -0.742000000     0.258000000
C     4.254000000     1.522000000    -1.787000000
C     3.752000000     0.686000000    -2.779000000
H     3.201000000     1.049000000    -3.643000000
C     3.808000000    -0.725000000    -2.586000000
O     3.177000000    -1.626000000    -3.438000000
C     1.941000000    -2.206000000    -3.053000000
C     0.906000000    -2.195000000    -4.182000000
C     1.078000000    -1.296000000    -5.208000000
H     1.935000000    -0.629000000    -5.257000000
C    -0.286000000    -2.925000000    -3.992000000
H    -0.374000000    -3.593000000    -3.139000000
O     2.155000000    -3.555000000    -2.564000000
H     1.494000000    -1.558000000    -2.284000000
C     4.425000000    -1.243000000    -1.454000000
C     4.640000000    -2.741000000    -1.275000000
H     5.605000000    -2.796000000    -0.767000000
H     4.772000000    -3.360000000    -2.165000000
C     3.488000000    -3.416000000    -0.523000000
C     2.309000000    -3.819000000    -1.223000000
C     1.245000000    -4.288000000    -0.461000000
H     0.312000000    -4.601000000    -0.922000000
C     1.269000000    -4.358000000     0.910000000
O     0.172000000    -4.866000000     1.551000000
C    -0.701000000    -3.880000000     2.089000000
H    -0.407000000    -2.955000000     1.570000000
C    -2.173000000    -4.167000000     1.763000000
C    -3.138000000    -3.927000000     2.754000000
H    -2.832000000    -3.424000000     3.668000000
C    -2.662000000    -4.518000000     0.548000000
H    -2.080000000    -4.628000000    -0.363000000
C    -4.034000000    -4.643000000     0.296000000
O    -4.587000000    -5.206000000    -0.842000000
C    -4.990000000    -4.289000000     1.250000000
H    -6.060000000    -4.254000000     1.062000000
C    -4.506000000    -3.852000000     2.455000000
O    -5.348000000    -3.417000000     3.483000000
C    -5.216000000    -2.200000000     4.115000000
C    -5.070000000    -1.034000000     3.382000000
H    -5.131000000    -1.115000000     2.300000000
C    -5.410000000    -2.189000000     5.504000000
H    -5.445000000    -3.139000000     6.032000000
C    -5.517000000    -0.969000000     6.179000000
H    -5.624000000    -0.988000000     7.260000000
C    -5.396000000     0.280000000     5.461000000
H    -5.400000000     1.217000000     6.011000000
C    -5.039000000     0.157000000     4.080000000
O    -4.879000000     1.321000000     3.347000000
C    -3.873000000     2.153000000     3.648000000
C    -3.981000000     3.507000000     3.572000000
H    -4.961000000     3.930000000     3.365000000
C    -2.847000000     4.403000000     3.446000000
O    -2.896000000     5.727000000     3.193000000
C    -2.101000000     6.317000000     2.259000000
C    -1.974000000     5.936000000     0.888000000
H    -2.553000000     5.052000000     0.631000000
C    -1.454000000     7.489000000     2.623000000
H    -1.572000000     7.939000000     3.605000000
C    -0.600000000     8.087000000     1.685000000
H     0.012000000     8.927000000     2.002000000
C    -0.496000000     7.678000000     0.359000000
H     0.088000000     8.218000000    -0.382000000
C    -1.175000000     6.553000000    -0.042000000
O    -1.235000000     6.102000000    -1.394000000
C    -0.469000000     5.136000000    -1.955000000
C    -0.484000000     5.099000000    -3.335000000
H    -1.170000000     5.715000000    -3.911000000
C     0.443000000     4.221000000    -3.990000000
O     0.359000000     4.253000000    -5.383000000
C     0.786000000     3.222000000    -6.176000000
C     0.178000000     2.014000000    -6.280000000
H    -0.749000000     1.844000000    -5.739000000
C     1.969000000     3.522000000    -6.927000000
H     2.448000000     4.473000000    -6.713000000
C     2.521000000     2.493000000    -7.726000000
H     3.468000000     2.581000000    -8.253000000
C     2.003000000     1.182000000    -7.644000000
H     2.460000000     0.361000000    -8.190000000
C     0.811000000     0.958000000    -6.940000000
O     0.155000000    -0.233000000    -7.141000000
C     0.050000000    -1.096000000    -6.076000000
C    -1.150000000    -1.805000000    -5.955000000
H    -1.878000000    -1.537000000    -6.717000000
C    -1.315000000    -2.742000000    -4.918000000
O    -2.594000000    -3.324000000    -4.740000000
C    -2.976000000    -4.399000000    -3.997000000
C    -2.870000000    -5.662000000    -4.585000000
H    -2.506000000    -5.771000000    -5.603000000
C    -3.312000000    -6.812000000    -3.896000000
H    -3.284000000    -7.820000000    -4.304000000
C    -3.717000000    -6.733000000    -2.565000000
H    -3.986000000    -7.609000000    -1.980000000
C    -3.938000000    -5.431000000    -2.025000000
C    -3.545000000    -4.293000000    -2.722000000
H    -3.758000000    -3.311000000    -2.307000000
C    -0.905000000     0.383000000    -1.991000000
H    -0.955000000     0.253000000    -3.069000000
C     0.310000000     0.304000000    -1.244000000
H     1.276000000     0.316000000    -1.742000000
C     0.342000000     0.125000000     0.089000000
H     1.349000000     0.083000000     0.490000000
C    -0.873000000    -0.178000000     0.799000000
H    -0.782000000    -0.574000000     1.807000000
C    -2.076000000    -0.052000000     0.136000000
H    -3.005000000    -0.135000000     0.693000000
C    -2.148000000     0.215000000    -1.253000000
C    -3.464000000     0.218000000    -2.016000000
O    -4.531000000     0.267000000    -1.364000000
O    -3.554000000     0.592000000    -3.157000000
O    -4.868000000     0.963000000    -8.185000000
H    -4.338000000     1.126000000    -7.405000000
H    -5.484000000     1.695000000    -8.213000000
O    -5.098000000    -1.606000000    -4.087000000
H    -4.509000000    -2.340000000    -4.263000000
H    -4.515000000    -0.866000000    -3.918000000
O    -3.853000000     6.564000000    -4.327000000
H    -3.812000000     7.394000000    -3.853000000
H    -3.563000000     5.910000000    -3.690000000
O    -6.282000000     1.869000000    -0.218000000
H    -6.172000000     2.694000000    -0.691000000
H    -5.698000000     1.257000000    -0.665000000
O    -6.167000000     4.947000000    -0.111000000
H    -5.383000000     4.841000000    -0.651000000
H    -6.003000000     5.742000000     0.396000000
O    -8.436000000    -2.940000000    -0.369000000
H    -8.256000000    -3.710000000     0.172000000
H    -7.647000000    -2.831000000    -0.900000000
O    -6.882000000     3.452000000    -3.225000000
H    -6.752000000     3.889000000    -4.067000000
H    -6.751000000     4.142000000    -2.574000000
O    -3.389000000     1.514000000    -5.856000000
H    -3.285000000     0.877000000    -5.150000000
H    -3.761000000     2.286000000    -5.429000000
O    -8.176000000    -0.112000000     0.650000000
H    -7.435000000     0.385000000     0.301000000
H    -8.071000000    -0.989000000     0.279000000
O    -9.641000000     0.438000000    -3.034000000
H    -8.755000000     0.733000000    -2.823000000
H    -9.640000000    -0.495000000    -2.818000000
O    -6.837000000    -5.035000000    -2.971000000
H    -6.959000000    -5.917000000    -2.621000000
H    -5.893000000    -4.884000000    -2.916000000
O    -3.597000000     3.012000000     0.074000000
H    -2.950000000     2.316000000     0.196000000
H    -4.412000000     2.643000000     0.416000000
O    -7.567000000    -1.136000000    -5.212000000
H    -7.963000000    -0.278000000    -5.060000000
H    -6.690000000    -1.066000000    -4.834000000
O    -4.251000000    -1.522000000    -7.441000000
H    -5.117000000    -1.752000000    -7.103000000
H    -4.317000000    -0.592000000    -7.655000000
O    -6.898000000     0.852000000    -3.133000000
H    -7.081000000     1.785000000    -3.242000000
H    -5.958000000     0.811000000    -2.960000000
O    -4.002000000     5.100000000    -1.823000000
H    -3.443000000     4.740000000    -1.135000000
H    -4.238000000     4.344000000    -2.360000000
O    -4.217000000     3.285000000    -4.071000000
H    -5.157000000     3.343000000    -3.902000000
H    -3.979000000     2.398000000    -3.798000000
O    -7.445000000     3.221000000     2.046000000
H    -7.094000000     2.501000000     1.522000000
H    -7.176000000     4.011000000     1.576000000
O    -6.276000000    -1.798000000    -1.485000000
H    -5.609000000    -1.153000000    -1.251000000
H    -6.174000000    -1.915000000    -2.430000000
