215
-1442.39533
C    -1.058000000     3.564000000     3.878000000
H    -0.215000000     4.000000000     3.348000000
C    -1.045000000     2.325000000     4.490000000
C    -2.252000000     1.714000000     4.876000000
H    -2.415000000     0.694000000     5.217000000
C     0.190000000     1.359000000     4.356000000
O     1.417000000     2.163000000     4.364000000
H     0.086000000     1.020000000     3.315000000
O     0.157000000     0.244000000     5.177000000
C     0.601000000    -0.934000000     4.667000000
C    -0.411000000    -1.781000000     4.092000000
H    -1.463000000    -1.653000000     4.337000000
C    -0.067000000    -2.890000000     3.377000000
O    -1.155000000    -3.689000000     2.912000000
C     1.259000000    -3.252000000     3.155000000
C     1.681000000    -4.579000000     2.435000000
H     2.680000000    -4.838000000     2.791000000
C     1.689000000    -4.358000000     0.890000000
C     2.914000000    -4.173000000     0.230000000
H     3.872000000    -4.128000000     0.741000000
H     0.951000000    -5.356000000     2.676000000
C     2.274000000    -2.413000000     3.758000000
H     3.330000000    -2.620000000     3.606000000
C     1.914000000    -1.224000000     4.379000000
C     3.030000000    -0.240000000     4.780000000
H     3.943000000    -0.802000000     4.987000000
H     2.710000000     0.366000000     5.630000000
C     3.236000000     0.664000000     3.597000000
C     4.171000000     0.334000000     2.596000000
H     4.716000000    -0.605000000     2.545000000
C     2.443000000     1.787000000     3.393000000
C     2.710000000     2.651000000     2.320000000
H     2.175000000     3.594000000     2.239000000
C     3.685000000     2.374000000     1.354000000
O     3.755000000     3.246000000     0.281000000
C     3.217000000     2.760000000    -0.966000000
C     2.523000000     3.908000000    -1.699000000
C     2.396000000     3.942000000    -3.081000000
H     2.865000000     3.171000000    -3.687000000
C     1.878000000     4.902000000    -0.967000000
H     2.058000000     4.940000000     0.104000000
O     4.248000000     2.197000000    -1.812000000
H     2.482000000     1.972000000    -0.745000000
C     4.402000000     1.213000000     1.483000000
C     5.482000000     0.808000000     0.475000000
H     6.237000000     0.219000000     1.000000000
H     6.111000000     1.658000000     0.206000000
C     4.864000000     0.101000000    -0.774000000
C     4.859000000    -1.328000000    -0.832000000
H     5.278000000    -1.912000000    -0.016000000
C     4.310000000     0.823000000    -1.825000000
C     3.559000000     0.243000000    -2.873000000
H     2.976000000     0.806000000    -3.598000000
C     3.592000000    -1.202000000    -2.885000000
O     2.752000000    -1.786000000    -3.783000000
C     1.423000000    -2.305000000    -3.435000000
C     0.326000000    -1.848000000    -4.432000000
C     0.366000000    -0.642000000    -5.156000000
H     1.292000000    -0.078000000    -5.080000000
C    -0.911000000    -2.569000000    -4.373000000
H    -1.098000000    -3.482000000    -3.812000000
O     1.470000000    -3.740000000    -3.144000000
H     1.217000000    -1.837000000    -2.461000000
C     4.187000000    -1.963000000    -1.867000000
C     4.121000000    -3.512000000    -1.919000000
H     4.923000000    -3.959000000    -1.327000000
H     4.146000000    -3.717000000    -2.991000000
C     2.831000000    -3.917000000    -1.183000000
C     1.657000000    -4.100000000    -1.846000000
C     0.448000000    -4.384000000    -1.154000000
H    -0.473000000    -4.547000000    -1.708000000
C     0.476000000    -4.504000000     0.218000000
O    -0.728000000    -4.739000000     0.830000000
C    -1.424000000    -3.672000000     1.522000000
H    -0.973000000    -2.738000000     1.158000000
C    -2.926000000    -3.515000000     1.313000000
C    -3.688000000    -2.669000000     2.173000000
H    -3.211000000    -2.303000000     3.078000000
C    -3.462000000    -3.987000000     0.149000000
H    -2.895000000    -4.472000000    -0.643000000
C    -4.777000000    -3.695000000    -0.140000000
O    -5.338000000    -4.201000000    -1.289000000
C    -5.549000000    -2.904000000     0.667000000
H    -6.578000000    -2.788000000     0.336000000
C    -4.999000000    -2.374000000     1.870000000
O    -5.839000000    -1.643000000     2.700000000
C    -5.510000000    -1.103000000     3.931000000
C    -5.079000000     0.190000000     4.037000000
H    -4.836000000     0.614000000     3.065000000
C    -5.773000000    -1.845000000     5.081000000
H    -6.106000000    -2.859000000     4.873000000
C    -5.683000000    -1.270000000     6.364000000
H    -5.812000000    -1.754000000     7.329000000
C    -5.250000000     0.075000000     6.427000000
H    -5.147000000     0.556000000     7.397000000
C    -4.899000000     0.800000000     5.273000000
O    -4.638000000     2.124000000     5.391000000
C    -3.392000000     2.571000000     4.937000000
C    -3.373000000     3.813000000     4.410000000
H    -4.235000000     4.472000000     4.476000000
C    -2.207000000     4.382000000     3.847000000
O    -2.210000000     5.544000000     3.162000000
C    -1.140000000     6.040000000     2.530000000
C    -1.085000000     6.178000000     1.177000000
H    -2.008000000     5.934000000     0.658000000
C    -0.125000000     6.655000000     3.255000000
H    -0.217000000     6.719000000     4.336000000
C     1.015000000     7.162000000     2.609000000
H     1.720000000     7.678000000     3.256000000
C     1.129000000     7.037000000     1.253000000
H     1.981000000     7.469000000     0.736000000
C     0.064000000     6.615000000     0.523000000
O     0.161000000     6.643000000    -0.841000000
C     0.966000000     5.815000000    -1.599000000
C     0.860000000     5.760000000    -2.957000000
H     0.144000000     6.437000000    -3.416000000
C     1.560000000     4.857000000    -3.710000000
O     1.494000000     4.908000000    -5.106000000
C     1.550000000     3.764000000    -5.871000000
C     0.467000000     2.880000000    -5.870000000
H    -0.345000000     3.031000000    -5.163000000
C     2.698000000     3.502000000    -6.723000000
H     3.594000000     4.116000000    -6.685000000
C     2.675000000     2.339000000    -7.498000000
H     3.590000000     2.093000000    -8.030000000
C     1.549000000     1.521000000    -7.567000000
H     1.542000000     0.666000000    -8.238000000
C     0.433000000     1.798000000    -6.818000000
O    -0.594000000     0.848000000    -6.808000000
C    -0.674000000    -0.273000000    -6.026000000
C    -1.872000000    -1.016000000    -5.982000000
H    -2.736000000    -0.724000000    -6.574000000
C    -1.954000000    -2.078000000    -5.156000000
O    -3.151000000    -2.834000000    -5.196000000
C    -3.571000000    -3.828000000    -4.426000000
C    -3.489000000    -5.171000000    -4.854000000
H    -3.161000000    -5.379000000    -5.869000000
C    -4.014000000    -6.203000000    -4.039000000
H    -3.898000000    -7.224000000    -4.393000000
C    -4.570000000    -5.895000000    -2.820000000
H    -4.918000000    -6.716000000    -2.199000000
C    -4.679000000    -4.547000000    -2.385000000
C    -4.222000000    -3.542000000    -3.217000000
H    -4.240000000    -2.518000000    -2.852000000
C    -1.282000000     0.841000000    -2.784000000
H    -1.311000000     1.298000000    -3.770000000
C     0.014000000     0.690000000    -2.209000000
H     0.934000000     0.972000000    -2.715000000
C     0.060000000     0.203000000    -0.935000000
H     1.050000000     0.161000000    -0.404000000
C    -1.047000000    -0.312000000    -0.260000000
H    -0.907000000    -0.729000000     0.734000000
C    -2.277000000    -0.293000000    -0.883000000
H    -3.126000000    -0.746000000    -0.378000000
C    -2.413000000     0.331000000    -2.107000000
C    -3.841000000     0.656000000    -2.704000000
O    -4.736000000     0.290000000    -1.877000000
O    -4.033000000     1.603000000    -3.371000000
O    -4.666000000     1.571000000    -7.015000000
H    -4.983000000     0.852000000    -6.469000000
H    -3.955000000     1.962000000    -6.507000000
O    -5.277000000    -0.793000000    -5.519000000
H    -6.099000000    -0.427000000    -5.848000000
H    -5.411000000    -0.871000000    -4.574000000
O    -6.151000000     5.431000000    -0.852000000
H    -6.126000000     5.041000000    -1.726000000
H    -5.332000000     5.151000000    -0.442000000
O    -5.157000000     1.929000000     0.528000000
H    -6.081000000     1.884000000     0.774000000
H    -5.069000000     1.301000000    -0.189000000
O    -9.382000000    -0.366000000    -1.187000000
H    -9.133000000    -0.645000000    -0.306000000
H    -8.711000000    -0.743000000    -1.756000000
O    -7.211000000     4.748000000    -3.445000000
H    -7.894000000     5.308000000    -3.077000000
H    -7.336000000     4.809000000    -4.392000000
O    -2.994000000     3.158000000    -5.332000000
H    -3.313000000     3.975000000    -4.948000000
H    -3.191000000     2.491000000    -4.674000000
O    -7.508000000     0.754000000    -5.825000000
H    -7.199000000     1.065000000    -4.975000000
H    -8.291000000     0.241000000    -5.622000000
O    -9.390000000     2.026000000    -2.745000000
H    -9.766000000     1.345000000    -2.186000000
H    -8.450000000     1.846000000    -2.743000000
O    -7.862000000     2.087000000     1.006000000
H    -8.010000000     3.014000000     1.189000000
H    -8.733000000     1.692000000     1.048000000
O    -4.393000000     6.780000000    -4.422000000
H    -4.767000000     7.485000000    -3.894000000
H    -5.092000000     6.129000000    -4.482000000
O    -4.304000000     4.483000000     1.147000000
H    -4.982000000     3.810000000     1.215000000
H    -3.504000000     4.046000000     1.439000000
O    -5.054000000    -2.265000000    -7.766000000
H    -4.961000000    -3.217000000    -7.761000000
H    -5.166000000    -2.029000000    -6.845000000
O    -2.045000000     4.233000000    -8.050000000
H    -1.910000000     3.633000000    -7.317000000
H    -2.770000000     4.792000000    -7.771000000
O    -6.800000000     2.143000000    -3.099000000
H    -6.842000000     3.098000000    -3.052000000
H    -5.905000000     1.930000000    -2.834000000
O    -7.698000000    -3.184000000    -5.774000000
H    -7.145000000    -3.408000000    -6.523000000
H    -7.132000000    -3.306000000    -5.013000000
O    -1.553000000     2.735000000    -0.010000000
H    -1.285000000     1.870000000    -0.318000000
H    -1.994000000     3.131000000    -0.763000000
O    -3.629000000     3.718000000    -1.736000000
H    -3.902000000     3.104000000    -2.418000000
H    -4.194000000     3.512000000    -0.990000000
O    -6.626000000    -1.590000000    -2.678000000
H    -6.199000000    -0.952000000    -2.106000000
H    -6.442000000    -2.436000000    -2.271000000
