215
-1445.86928
C    -1.813000000     3.091000000     3.113000000
H    -1.088000000     3.727000000     2.612000000
C    -1.479000000     2.007000000     3.877000000
C    -2.480000000     1.260000000     4.615000000
H    -2.391000000     0.335000000     5.179000000
C    -0.060000000     1.461000000     3.909000000
O     0.813000000     2.673000000     4.072000000
H     0.198000000     0.958000000     2.966000000
O     0.173000000     0.492000000     4.972000000
C     0.881000000    -0.641000000     4.643000000
C     0.215000000    -1.784000000     4.511000000
H    -0.854000000    -1.636000000     4.644000000
C     0.811000000    -2.830000000     3.801000000
O    -0.057000000    -3.801000000     3.306000000
C     2.140000000    -2.760000000     3.427000000
C     2.821000000    -3.905000000     2.753000000
H     3.874000000    -3.891000000     3.043000000
C     2.746000000    -3.746000000     1.197000000
C     3.821000000    -3.249000000     0.492000000
H     4.761000000    -2.940000000     0.942000000
H     2.405000000    -4.870000000     3.050000000
C     2.892000000    -1.603000000     3.759000000
H     3.960000000    -1.750000000     3.621000000
C     2.265000000    -0.554000000     4.326000000
C     3.040000000     0.716000000     4.555000000
H     4.062000000     0.401000000     4.776000000
H     2.683000000     1.185000000     5.474000000
C     2.966000000     1.689000000     3.377000000
C     3.973000000     1.700000000     2.431000000
H     4.738000000     0.942000000     2.580000000
C     1.977000000     2.713000000     3.343000000
C     1.925000000     3.541000000     2.229000000
H     1.005000000     4.096000000     2.063000000
C     2.932000000     3.488000000     1.280000000
O     2.678000000     4.125000000     0.094000000
C     2.193000000     3.423000000    -1.055000000
C     1.084000000     4.237000000    -1.773000000
C     0.632000000     3.910000000    -3.043000000
H     1.042000000     2.998000000    -3.469000000
C     0.504000000     5.282000000    -1.161000000
H     0.728000000     5.542000000    -0.130000000
O     3.212000000     3.076000000    -1.947000000
H     1.748000000     2.478000000    -0.711000000
C     3.974000000     2.586000000     1.373000000
C     4.996000000     2.397000000     0.258000000
H     5.939000000     2.121000000     0.736000000
H     5.127000000     3.334000000    -0.287000000
C     4.549000000     1.363000000    -0.821000000
C     4.872000000     0.039000000    -0.782000000
H     5.512000000    -0.297000000     0.029000000
C     3.737000000     1.807000000    -1.937000000
C     3.429000000     0.935000000    -2.968000000
H     2.791000000     1.245000000    -3.792000000
C     3.776000000    -0.413000000    -2.805000000
O     3.327000000    -1.318000000    -3.790000000
C     2.169000000    -2.126000000    -3.458000000
C     1.238000000    -2.246000000    -4.657000000
C     0.953000000    -1.159000000    -5.482000000
H     1.454000000    -0.225000000    -5.244000000
C     0.437000000    -3.372000000    -4.674000000
H     0.459000000    -4.019000000    -3.801000000
O     2.511000000    -3.397000000    -2.908000000
H     1.598000000    -1.592000000    -2.684000000
C     4.514000000    -0.839000000    -1.754000000
C     4.912000000    -2.332000000    -1.612000000
H     5.891000000    -2.437000000    -1.141000000
H     5.145000000    -2.776000000    -2.583000000
C     3.799000000    -3.081000000    -0.880000000
C     2.646000000    -3.573000000    -1.552000000
C     1.540000000    -4.096000000    -0.914000000
H     0.705000000    -4.424000000    -1.527000000
C     1.578000000    -4.185000000     0.462000000
O     0.471000000    -4.680000000     1.162000000
C    -0.320000000    -3.721000000     1.901000000
H    -0.104000000    -2.704000000     1.541000000
C    -1.802000000    -3.873000000     1.615000000
C    -2.792000000    -3.610000000     2.603000000
H    -2.475000000    -3.519000000     3.639000000
C    -2.134000000    -4.287000000     0.348000000
H    -1.390000000    -4.641000000    -0.360000000
C    -3.501000000    -4.251000000     0.015000000
O    -3.850000000    -4.582000000    -1.284000000
C    -4.468000000    -3.845000000     0.957000000
H    -5.500000000    -3.971000000     0.638000000
C    -4.127000000    -3.478000000     2.224000000
O    -5.154000000    -3.055000000     3.118000000
C    -5.001000000    -2.435000000     4.302000000
C    -4.855000000    -0.993000000     4.211000000
H    -4.809000000    -0.438000000     3.277000000
C    -5.304000000    -3.010000000     5.503000000
H    -5.593000000    -4.057000000     5.460000000
C    -5.418000000    -2.217000000     6.645000000
H    -5.654000000    -2.738000000     7.570000000
C    -5.210000000    -0.796000000     6.602000000
H    -5.417000000    -0.132000000     7.437000000
C    -4.916000000    -0.201000000     5.373000000
O    -4.750000000     1.165000000     5.325000000
C    -3.793000000     1.747000000     4.472000000
C    -4.105000000     2.881000000     3.773000000
H    -5.149000000     3.174000000     3.697000000
C    -3.139000000     3.505000000     3.031000000
O    -3.573000000     4.530000000     2.245000000
C    -2.870000000     5.722000000     1.868000000
C    -2.366000000     5.803000000     0.567000000
H    -2.206000000     4.875000000     0.024000000
C    -3.034000000     6.906000000     2.596000000
H    -3.507000000     6.964000000     3.573000000
C    -2.498000000     8.105000000     2.063000000
H    -2.546000000     9.032000000     2.629000000
C    -1.921000000     8.085000000     0.795000000
H    -1.357000000     8.967000000     0.502000000
C    -1.889000000     6.977000000     0.073000000
O    -1.241000000     7.014000000    -1.156000000
C    -0.488000000     6.004000000    -1.831000000
C    -0.922000000     5.623000000    -3.096000000
H    -1.728000000     6.057000000    -3.681000000
C    -0.256000000     4.612000000    -3.759000000
O    -0.759000000     4.220000000    -4.944000000
C    -0.102000000     3.340000000    -5.773000000
C    -0.638000000     2.063000000    -6.040000000
H    -1.583000000     1.718000000    -5.627000000
C     1.251000000     3.591000000    -6.189000000
H     1.744000000     4.510000000    -5.884000000
C     1.851000000     2.667000000    -7.039000000
H     2.872000000     2.799000000    -7.388000000
C     1.280000000     1.397000000    -7.372000000
H     1.755000000     0.618000000    -7.963000000
C     0.027000000     1.106000000    -6.833000000
O    -0.477000000    -0.116000000    -7.177000000
C    -0.077000000    -1.216000000    -6.401000000
C    -0.853000000    -2.403000000    -6.441000000
H    -1.654000000    -2.466000000    -7.173000000
C    -0.618000000    -3.472000000    -5.613000000
O    -1.586000000    -4.471000000    -5.540000000
C    -1.924000000    -5.080000000    -4.386000000
C    -1.426000000    -6.360000000    -4.192000000
H    -0.693000000    -6.696000000    -4.921000000
C    -1.621000000    -7.044000000    -2.936000000
H    -1.313000000    -8.084000000    -2.863000000
C    -2.438000000    -6.463000000    -1.948000000
H    -2.632000000    -7.009000000    -1.028000000
C    -3.086000000    -5.257000000    -2.232000000
C    -2.749000000    -4.487000000    -3.416000000
H    -3.079000000    -3.454000000    -3.496000000
C    -1.208000000    -0.010000000    -2.664000000
H    -0.933000000     0.240000000    -3.685000000
C    -0.262000000     0.181000000    -1.642000000
H     0.757000000     0.475000000    -1.881000000
C    -0.573000000    -0.201000000    -0.315000000
H     0.156000000    -0.109000000     0.428000000
C    -1.848000000    -0.682000000    -0.013000000
H    -1.988000000    -0.855000000     1.051000000
C    -2.799000000    -0.790000000    -1.106000000
H    -3.842000000    -1.083000000    -1.021000000
C    -2.478000000    -0.482000000    -2.381000000
C    -3.553000000    -0.612000000    -3.450000000
O    -4.622000000    -1.032000000    -3.176000000
O    -3.295000000    -0.266000000    -4.577000000
O    -4.449000000     2.341000000    -7.831000000
H    -4.280000000     1.415000000    -7.655000000
H    -5.325000000     2.495000000    -7.477000000
O    -6.208000000    -1.160000000    -5.057000000
H    -5.875000000    -1.928000000    -5.522000000
H    -5.600000000    -1.040000000    -4.328000000
O    -7.716000000     3.525000000    -1.771000000
H    -7.169000000     4.255000000    -2.065000000
H    -7.150000000     2.757000000    -1.844000000
O    -7.056000000     2.350000000    -6.629000000
H    -7.843000000     1.818000000    -6.750000000
H    -7.384000000     3.200000000    -6.336000000
O    -4.092000000    -0.321000000    -7.004000000
H    -3.635000000    -0.487000000    -6.179000000
H    -4.902000000    -0.826000000    -6.935000000
O    -6.884000000    -5.245000000    -1.572000000
H    -5.952000000    -5.296000000    -1.359000000
H    -6.961000000    -5.678000000    -2.422000000
O    -6.488000000     0.053000000     0.081000000
H    -6.547000000     0.637000000    -0.675000000
H    -6.491000000    -0.827000000    -0.296000000
O    -3.720000000     4.727000000    -5.993000000
H    -3.117000000     4.122000000    -5.562000000
H    -4.091000000     4.221000000    -6.716000000
O    -3.124000000    -0.498000000    -9.647000000
H    -2.867000000     0.420000000    -9.742000000
H    -3.167000000    -0.637000000    -8.701000000
O    -5.489000000    -3.072000000    -7.025000000
H    -5.194000000    -3.977000000    -6.925000000
H    -5.868000000    -3.039000000    -7.903000000
O    -2.837000000     2.206000000    -0.961000000
H    -3.078000000     1.642000000    -0.226000000
H    -2.034000000     1.816000000    -1.309000000
O    -8.830000000    -2.231000000    -6.375000000
H    -8.658000000    -1.485000000    -5.800000000
H    -7.966000000    -2.491000000    -6.695000000
O    -8.894000000     1.978000000    -4.365000000
H    -8.592000000     1.484000000    -3.603000000
H    -8.338000000     2.757000000    -4.382000000
O    -8.021000000    -0.415000000    -3.338000000
H    -7.397000000    -0.625000000    -4.033000000
H    -7.840000000    -1.057000000    -2.651000000
O    -6.171000000     1.392000000    -2.518000000
H    -5.960000000     0.459000000    -2.533000000
H    -5.781000000     1.738000000    -3.321000000
O    -4.405000000     3.817000000    -2.514000000
H    -3.810000000     3.180000000    -2.120000000
H    -4.641000000     3.434000000    -3.359000000
O    -4.872000000     1.954000000    -4.709000000
H    -5.372000000     1.923000000    -5.525000000
H    -4.195000000     1.286000000    -4.817000000
O    -4.473000000    -5.979000000    -6.217000000
H    -4.542000000    -6.639000000    -6.908000000
H    -3.642000000    -5.536000000    -6.391000000
O    -6.505000000    -2.037000000    -1.643000000
H    -5.743000000    -1.921000000    -2.210000000
H    -6.833000000    -2.910000000    -1.858000000
