215
-1440.83725
C    -1.762000000     3.920000000     3.013000000
H    -0.858000000     4.438000000     2.705000000
C    -1.688000000     2.697000000     3.725000000
C    -2.875000000     2.096000000     4.152000000
H    -2.776000000     1.154000000     4.685000000
C    -0.336000000     2.003000000     3.873000000
O     0.801000000     2.879000000     4.172000000
H    -0.103000000     1.566000000     2.891000000
O    -0.401000000     0.953000000     4.884000000
C     0.087000000    -0.308000000     4.684000000
C    -0.739000000    -1.334000000     4.284000000
H    -1.814000000    -1.216000000     4.179000000
C    -0.204000000    -2.575000000     3.986000000
O    -1.034000000    -3.518000000     3.459000000
C     1.141000000    -2.791000000     3.885000000
C     1.600000000    -4.152000000     3.306000000
H     2.569000000    -4.433000000     3.724000000
C     1.690000000    -4.127000000     1.839000000
C     2.985000000    -3.997000000     1.275000000
H     3.917000000    -3.836000000     1.810000000
H     0.824000000    -4.902000000     3.469000000
C     2.041000000    -1.811000000     4.244000000
H     3.115000000    -1.982000000     4.220000000
C     1.509000000    -0.572000000     4.691000000
C     2.485000000     0.559000000     4.979000000
H     3.373000000     0.224000000     5.518000000
H     2.057000000     1.237000000     5.720000000
C     2.713000000     1.411000000     3.741000000
C     3.807000000     1.001000000     3.004000000
H     4.396000000     0.191000000     3.425000000
C     1.991000000     2.579000000     3.470000000
C     2.274000000     3.280000000     2.334000000
H     1.698000000     4.121000000     1.957000000
C     3.317000000     2.867000000     1.473000000
O     3.436000000     3.559000000     0.258000000
C     3.130000000     2.695000000    -0.883000000
C     2.239000000     3.336000000    -1.964000000
C     2.605000000     3.459000000    -3.329000000
H     3.563000000     3.107000000    -3.703000000
C     0.949000000     3.795000000    -1.594000000
H     0.564000000     3.709000000    -0.580000000
O     4.338000000     2.111000000    -1.478000000
H     2.558000000     1.805000000    -0.582000000
C     4.066000000     1.705000000     1.836000000
C     5.315000000     1.101000000     1.063000000
H     6.095000000     0.644000000     1.675000000
H     5.976000000     1.909000000     0.741000000
C     5.001000000     0.226000000    -0.125000000
C     5.052000000    -1.154000000     0.101000000
H     5.311000000    -1.605000000     1.055000000
C     4.508000000     0.725000000    -1.339000000
C     4.285000000    -0.139000000    -2.400000000
H     3.742000000     0.342000000    -3.210000000
C     4.297000000    -1.526000000    -2.161000000
O     3.578000000    -2.310000000    -3.117000000
C     2.188000000    -2.558000000    -2.860000000
C     1.246000000    -2.194000000    -3.975000000
C     1.624000000    -1.497000000    -5.133000000
H     2.667000000    -1.243000000    -5.306000000
C    -0.085000000    -2.529000000    -3.818000000
H    -0.405000000    -3.000000000    -2.892000000
O     2.094000000    -3.875000000    -2.312000000
H     1.938000000    -1.883000000    -2.028000000
C     4.604000000    -2.054000000    -0.888000000
C     4.527000000    -3.582000000    -0.643000000
H     5.313000000    -3.801000000     0.082000000
H     4.672000000    -4.136000000    -1.572000000
C     3.149000000    -3.959000000    -0.066000000
C     2.005000000    -4.068000000    -0.901000000
C     0.761000000    -4.298000000    -0.419000000
H    -0.148000000    -4.350000000    -1.014000000
C     0.619000000    -4.360000000     0.986000000
O    -0.638000000    -4.481000000     1.454000000
C    -1.310000000    -3.419000000     2.005000000
H    -0.938000000    -2.428000000     1.703000000
C    -2.805000000    -3.403000000     1.675000000
C    -3.674000000    -2.813000000     2.568000000
H    -3.373000000    -2.520000000     3.571000000
C    -3.320000000    -3.740000000     0.454000000
H    -2.651000000    -4.128000000    -0.309000000
C    -4.711000000    -3.756000000     0.158000000
O    -5.112000000    -4.142000000    -1.079000000
C    -5.548000000    -3.214000000     1.119000000
H    -6.604000000    -3.084000000     0.899000000
C    -5.012000000    -2.775000000     2.360000000
O    -5.803000000    -2.595000000     3.467000000
C    -5.609000000    -1.664000000     4.364000000
C    -5.406000000    -0.342000000     3.919000000
H    -5.578000000    -0.075000000     2.880000000
C    -5.657000000    -1.948000000     5.740000000
H    -5.699000000    -2.986000000     6.059000000
C    -5.448000000    -0.901000000     6.600000000
H    -5.501000000    -1.114000000     7.665000000
C    -5.236000000     0.409000000     6.160000000
H    -5.187000000     1.144000000     6.959000000
C    -5.279000000     0.715000000     4.812000000
O    -5.242000000     2.050000000     4.479000000
C    -4.087000000     2.645000000     3.911000000
C    -4.155000000     3.808000000     3.170000000
H    -5.089000000     4.205000000     2.780000000
C    -3.001000000     4.526000000     2.839000000
O    -3.123000000     5.694000000     2.095000000
C    -2.313000000     6.082000000     1.010000000
C    -2.065000000     5.187000000    -0.054000000
H    -2.451000000     4.171000000    -0.070000000
C    -1.897000000     7.390000000     0.904000000
H    -2.107000000     8.121000000     1.680000000
C    -1.244000000     7.834000000    -0.266000000
H    -0.923000000     8.872000000    -0.262000000
C    -1.063000000     6.948000000    -1.336000000
H    -0.507000000     7.293000000    -2.204000000
C    -1.400000000     5.633000000    -1.214000000
O    -1.173000000     4.793000000    -2.291000000
C     0.131000000     4.383000000    -2.563000000
C     0.549000000     4.578000000    -3.858000000
H    -0.116000000     5.055000000    -4.574000000
C     1.798000000     4.134000000    -4.195000000
O     2.144000000     4.110000000    -5.502000000
C     2.447000000     2.949000000    -6.172000000
C     1.500000000     1.887000000    -6.263000000
H     0.524000000     1.930000000    -5.785000000
C     3.597000000     2.943000000    -6.931000000
H     4.191000000     3.828000000    -6.721000000
C     3.926000000     1.832000000    -7.681000000
H     4.834000000     1.860000000    -8.279000000
C     3.059000000     0.734000000    -7.712000000
H     3.267000000    -0.226000000    -8.178000000
C     1.816000000     0.823000000    -7.062000000
O     0.893000000    -0.320000000    -7.099000000
C     0.632000000    -1.058000000    -6.007000000
C    -0.656000000    -1.422000000    -5.848000000
H    -1.325000000    -1.006000000    -6.597000000
C    -1.066000000    -2.179000000    -4.802000000
O    -2.475000000    -2.231000000    -4.583000000
C    -3.056000000    -3.249000000    -3.988000000
C    -2.776000000    -4.507000000    -4.454000000
H    -2.136000000    -4.717000000    -5.307000000
C    -3.200000000    -5.738000000    -3.790000000
H    -2.996000000    -6.747000000    -4.140000000
C    -4.015000000    -5.504000000    -2.675000000
H    -4.361000000    -6.375000000    -2.124000000
C    -4.314000000    -4.209000000    -2.198000000
C    -3.868000000    -3.126000000    -2.844000000
H    -4.235000000    -2.112000000    -2.708000000
C    -0.804000000     0.671000000    -2.144000000
H    -0.921000000     0.989000000    -3.176000000
C     0.492000000     0.388000000    -1.694000000
H     1.335000000     0.593000000    -2.348000000
C     0.757000000    -0.023000000    -0.389000000
H     1.824000000    -0.207000000    -0.067000000
C    -0.342000000    -0.184000000     0.440000000
H    -0.125000000    -0.610000000     1.416000000
C    -1.644000000     0.018000000     0.033000000
H    -2.441000000    -0.156000000     0.752000000
C    -1.882000000     0.506000000    -1.252000000
C    -3.298000000     0.795000000    -1.762000000
O    -4.272000000     0.421000000    -1.169000000
O    -3.436000000     1.423000000    -2.789000000
O    -5.700000000     0.838000000    -3.794000000
H    -6.305000000     1.209000000    -3.152000000
H    -4.836000000     0.929000000    -3.391000000
O    -4.457000000     6.401000000    -2.059000000
H    -3.888000000     6.517000000    -2.820000000
H    -4.363000000     5.477000000    -1.829000000
O    -7.057000000     4.613000000    -4.314000000
H    -7.004000000     5.470000000    -4.738000000
H    -7.862000000     4.650000000    -3.797000000
O    -9.004000000     3.398000000    -0.124000000
H    -9.762000000     3.595000000     0.425000000
H    -8.249000000     3.570000000     0.439000000
O    -4.883000000     0.268000000    -8.625000000
H    -5.079000000     0.072000000    -7.709000000
H    -4.058000000     0.753000000    -8.594000000
O    -7.191000000    -2.606000000    -3.432000000
H    -7.434000000    -3.420000000    -2.991000000
H    -6.727000000    -2.101000000    -2.763000000
O    -2.424000000     1.609000000    -8.245000000
H    -2.274000000     2.397000000    -8.766000000
H    -2.437000000     1.920000000    -7.339000000
O    -2.513000000     1.764000000    -5.225000000
H    -2.839000000     2.664000000    -5.219000000
H    -2.784000000     1.405000000    -4.380000000
O    -7.384000000     1.901000000     2.457000000
H    -6.660000000     1.986000000     1.837000000
H    -7.012000000     2.166000000     3.298000000
O    -5.242000000     1.913000000     0.805000000
H    -4.922000000     1.244000000     0.201000000
H    -4.475000000     2.455000000     0.992000000
O    -7.088000000     2.297000000    -6.168000000
H    -7.376000000     3.181000000    -5.941000000
H    -6.401000000     2.098000000    -5.532000000
O    -7.697000000    -1.238000000    -5.582000000
H    -7.501000000    -1.757000000    -4.802000000
H    -6.864000000    -0.826000000    -5.812000000
O    -5.082000000    -0.857000000    -6.113000000
H    -5.332000000    -0.388000000    -5.317000000
H    -4.406000000    -1.472000000    -5.827000000
O    -4.629000000     3.618000000    -1.412000000
H    -5.456000000     3.212000000    -1.154000000
H    -4.168000000     2.934000000    -1.898000000
O    -7.469000000     1.721000000    -1.815000000
H    -8.215000000     2.235000000    -1.503000000
H    -7.553000000     0.881000000    -1.364000000
O    -4.198000000     3.678000000    -4.371000000
H    -3.906000000     2.900000000    -3.896000000
H    -5.053000000     3.884000000    -3.992000000
O    -4.956000000     4.957000000    -7.049000000
H    -4.239000000     4.969000000    -7.683000000
H    -4.559000000     4.622000000    -6.245000000
O    -6.294000000    -1.185000000    -1.391000000
H    -5.534000000    -0.605000000    -1.449000000
H    -6.211000000    -1.602000000    -0.534000000
O    -9.747000000     2.243000000    -4.614000000
H    -9.716000000     1.714000000    -5.411000000
H    -8.963000000     1.989000000    -4.127000000
