215
-1457.93605
C    -1.786000000     4.283000000     3.322000000
H    -0.914000000     4.850000000     3.007000000
C    -1.699000000     2.892000000     3.530000000
C    -2.903000000     2.151000000     3.724000000
H    -2.835000000     1.082000000     3.908000000
C    -0.311000000     2.204000000     3.660000000
O     0.762000000     3.229000000     3.836000000
H    -0.242000000     1.618000000     2.732000000
O    -0.448000000     1.310000000     4.776000000
C     0.200000000     0.119000000     4.755000000
C    -0.609000000    -1.035000000     4.575000000
H    -1.682000000    -0.866000000     4.604000000
C    -0.137000000    -2.221000000     4.260000000
O    -1.067000000    -3.109000000     3.773000000
C     1.239000000    -2.382000000     4.190000000
C     1.764000000    -3.710000000     3.691000000
H     2.753000000    -3.874000000     4.122000000
C     1.940000000    -3.755000000     2.155000000
C     3.213000000    -3.600000000     1.608000000
H     4.090000000    -3.317000000     2.184000000
H     1.196000000    -4.613000000     3.924000000
C     2.121000000    -1.310000000     4.467000000
H     3.170000000    -1.573000000     4.350000000
C     1.610000000    -0.047000000     4.692000000
C     2.435000000     1.216000000     4.924000000
H     3.315000000     0.874000000     5.473000000
H     1.953000000     1.873000000     5.651000000
C     2.787000000     1.870000000     3.647000000
C     3.859000000     1.470000000     2.796000000
H     4.634000000     0.796000000     3.152000000
C     1.912000000     2.878000000     3.172000000
C     2.178000000     3.506000000     1.962000000
H     1.474000000     4.225000000     1.551000000
C     3.342000000     3.195000000     1.200000000
O     3.399000000     3.683000000    -0.072000000
C     2.999000000     2.780000000    -1.120000000
C     2.081000000     3.529000000    -2.144000000
C     2.330000000     3.658000000    -3.482000000
H     3.319000000     3.420000000    -3.866000000
C     0.892000000     4.026000000    -1.552000000
H     0.763000000     4.043000000    -0.473000000
O     4.164000000     2.155000000    -1.637000000
H     2.351000000     1.983000000    -0.726000000
C     4.124000000     2.117000000     1.628000000
C     5.347000000     1.581000000     0.856000000
H     6.152000000     1.292000000     1.535000000
H     5.718000000     2.400000000     0.237000000
C     4.914000000     0.425000000    -0.140000000
C     5.105000000    -0.878000000     0.173000000
H     5.523000000    -1.168000000     1.134000000
C     4.469000000     0.812000000    -1.370000000
C     4.182000000    -0.133000000    -2.347000000
H     3.640000000     0.078000000    -3.266000000
C     4.367000000    -1.444000000    -2.056000000
O     3.740000000    -2.300000000    -2.925000000
C     2.382000000    -2.651000000    -2.595000000
C     1.367000000    -2.513000000    -3.736000000
C     1.636000000    -1.665000000    -4.782000000
H     2.593000000    -1.179000000    -4.949000000
C     0.078000000    -3.134000000    -3.677000000
H    -0.133000000    -3.787000000    -2.834000000
O     2.350000000    -3.985000000    -1.938000000
H     2.035000000    -1.981000000    -1.795000000
C     4.779000000    -1.844000000    -0.761000000
C     4.704000000    -3.284000000    -0.371000000
H     5.508000000    -3.495000000     0.337000000
H     4.897000000    -3.964000000    -1.204000000
C     3.389000000    -3.781000000     0.219000000
C     2.250000000    -3.998000000    -0.595000000
C     1.003000000    -4.255000000    -0.012000000
H     0.194000000    -4.576000000    -0.664000000
C     0.862000000    -4.129000000     1.355000000
O    -0.363000000    -4.409000000     1.880000000
C    -1.149000000    -3.322000000     2.350000000
H    -0.884000000    -2.444000000     1.742000000
C    -2.629000000    -3.570000000     1.887000000
C    -3.709000000    -2.875000000     2.457000000
H    -3.493000000    -2.213000000     3.292000000
C    -2.828000000    -4.397000000     0.825000000
H    -2.040000000    -4.808000000     0.199000000
C    -4.201000000    -4.567000000     0.307000000
O    -4.450000000    -5.381000000    -0.709000000
C    -5.267000000    -3.932000000     0.920000000
H    -6.255000000    -4.202000000     0.556000000
C    -5.002000000    -3.092000000     1.965000000
O    -6.114000000    -2.413000000     2.497000000
C    -5.954000000    -1.459000000     3.426000000
C    -5.633000000    -0.192000000     3.027000000
H    -5.471000000    -0.031000000     1.964000000
C    -5.948000000    -1.750000000     4.779000000
H    -6.031000000    -2.782000000     5.110000000
C    -5.771000000    -0.758000000     5.775000000
H    -5.770000000    -0.968000000     6.842000000
C    -5.615000000     0.541000000     5.306000000
H    -5.491000000     1.290000000     6.084000000
C    -5.577000000     0.845000000     3.940000000
O    -5.365000000     2.138000000     3.557000000
C    -4.158000000     2.775000000     3.470000000
C    -4.216000000     4.142000000     3.174000000
H    -5.216000000     4.559000000     3.080000000
C    -3.015000000     4.859000000     3.075000000
O    -3.118000000     6.121000000     2.555000000
C    -2.525000000     6.407000000     1.331000000
C    -2.469000000     5.488000000     0.297000000
H    -2.920000000     4.499000000     0.325000000
C    -1.791000000     7.559000000     1.272000000
H    -1.798000000     8.256000000     2.105000000
C    -1.022000000     7.923000000     0.177000000
H    -0.469000000     8.858000000     0.200000000
C    -0.943000000     7.062000000    -0.875000000
H    -0.289000000     7.317000000    -1.705000000
C    -1.626000000     5.816000000    -0.802000000
O    -1.380000000     4.815000000    -1.762000000
C    -0.194000000     4.545000000    -2.330000000
C     0.002000000     4.483000000    -3.725000000
H    -0.695000000     4.835000000    -4.482000000
C     1.217000000     4.044000000    -4.310000000
O     1.300000000     3.935000000    -5.665000000
C     1.652000000     2.868000000    -6.425000000
C     1.175000000     1.605000000    -6.141000000
H     0.503000000     1.430000000    -5.304000000
C     2.524000000     3.085000000    -7.443000000
H     2.983000000     4.054000000    -7.620000000
C     2.911000000     2.049000000    -8.285000000
H     3.513000000     2.160000000    -9.183000000
C     2.429000000     0.832000000    -8.007000000
H     2.747000000    -0.011000000    -8.615000000
C     1.562000000     0.582000000    -6.965000000
O     0.999000000    -0.719000000    -6.918000000
C     0.686000000    -1.473000000    -5.768000000
C    -0.582000000    -1.965000000    -5.640000000
H    -1.339000000    -1.690000000    -6.370000000
C    -0.875000000    -2.808000000    -4.600000000
O    -2.171000000    -3.363000000    -4.477000000
C    -2.485000000    -4.471000000    -3.730000000
C    -2.212000000    -5.712000000    -4.228000000
H    -1.653000000    -5.901000000    -5.141000000
C    -2.629000000    -6.881000000    -3.541000000
H    -2.386000000    -7.891000000    -3.861000000
C    -3.443000000    -6.731000000    -2.410000000
H    -3.762000000    -7.581000000    -1.813000000
C    -3.713000000    -5.451000000    -1.907000000
C    -3.318000000    -4.295000000    -2.585000000
H    -3.605000000    -3.339000000    -2.153000000
C    -0.711000000     0.407000000    -1.751000000
H    -0.710000000     0.501000000    -2.834000000
C     0.422000000     0.181000000    -0.975000000
H     1.401000000     0.149000000    -1.447000000
C     0.301000000    -0.086000000     0.390000000
H     1.274000000    -0.283000000     0.899000000
C    -0.936000000     0.082000000     0.966000000
H    -1.007000000    -0.030000000     2.045000000
C    -2.071000000     0.392000000     0.230000000
H    -3.041000000     0.441000000     0.718000000
C    -1.982000000     0.398000000    -1.171000000
C    -3.230000000     0.602000000    -2.000000000
O    -4.291000000     0.055000000    -1.638000000
O    -3.208000000     1.152000000    -3.103000000
O    -6.023000000     1.401000000    -4.309000000
H    -6.525000000     0.712000000    -3.873000000
H    -5.258000000     1.530000000    -3.750000000
O    -5.799000000     5.502000000    -3.132000000
H    -5.304000000     4.684000000    -3.080000000
H    -6.583000000     5.276000000    -3.632000000
O    -4.231000000    -0.876000000    -4.902000000
H    -4.930000000    -0.423000000    -5.374000000
H    -4.105000000    -0.360000000    -4.106000000
O    -8.057000000    -0.099000000    -2.549000000
H    -7.543000000    -0.748000000    -2.069000000
H    -8.080000000     0.663000000    -1.970000000
O    -5.857000000     5.477000000    -7.059000000
H    -5.631000000     4.623000000    -6.693000000
H    -5.372000000     5.522000000    -7.883000000
O    -1.895000000     1.430000000    -8.243000000
H    -2.379000000     1.496000000    -7.420000000
H    -2.337000000     2.043000000    -8.830000000
O    -8.472000000     2.105000000    -0.944000000
H    -7.516000000     2.101000000    -0.994000000
H    -8.712000000     3.028000000    -1.020000000
O    -4.426000000    -3.346000000    -6.197000000
H    -4.104000000    -4.044000000    -5.627000000
H    -4.185000000    -2.537000000    -5.746000000
O    -5.660000000     2.096000000    -0.679000000
H    -5.198000000     2.735000000    -1.221000000
H    -5.300000000     1.250000000    -0.947000000
O    -7.762000000     4.358000000    -4.421000000
H    -8.128000000     3.746000000    -3.783000000
H    -7.874000000     3.920000000    -5.265000000
O    -8.711000000     0.637000000    -5.308000000
H    -8.947000000    -0.237000000    -5.618000000
H    -8.608000000     0.536000000    -4.362000000
O    -5.424000000     2.639000000    -6.659000000
H    -5.921000000     2.231000000    -5.950000000
H    -4.509000000     2.457000000    -6.446000000
O    -3.858000000     3.575000000    -2.269000000
H    -3.236000000     4.280000000    -2.449000000
H    -3.410000000     2.781000000    -2.559000000
O   -10.230000000    -1.743000000    -2.498000000
H   -10.082000000    -2.393000000    -3.185000000
H    -9.384000000    -1.306000000    -2.396000000
O    -3.042000000     1.968000000    -5.654000000
H    -3.063000000     1.562000000    -4.788000000
H    -2.773000000     2.872000000    -5.488000000
O    -3.187000000     4.948000000    -5.249000000
H    -2.524000000     5.637000000    -5.290000000
H    -4.021000000     5.414000000    -5.319000000
O    -5.144000000     7.143000000    -0.334000000
H    -5.231000000     8.095000000    -0.273000000
H    -4.738000000     6.994000000    -1.188000000
O    -7.275000000     4.550000000     1.817000000
H    -6.992000000     3.771000000     1.338000000
H    -7.661000000     5.115000000     1.147000000
O    -6.190000000    -1.909000000    -1.749000000
H    -5.534000000    -1.212000000    -1.749000000
H    -5.773000000    -2.631000000    -2.220000000
