215
-1455.31273
C    -2.564000000     3.329000000     2.256000000
H    -1.632000000     3.773000000     1.917000000
C    -2.408000000     2.232000000     3.137000000
C    -3.585000000     1.523000000     3.563000000
H    -3.571000000     0.815000000     4.387000000
C    -1.027000000     1.735000000     3.674000000
O    -0.110000000     2.822000000     3.839000000
H    -0.490000000     1.089000000     2.964000000
O    -1.083000000     0.995000000     4.885000000
C    -0.379000000    -0.203000000     4.823000000
C    -1.132000000    -1.304000000     4.385000000
H    -2.181000000    -1.172000000     4.133000000
C    -0.523000000    -2.530000000     4.148000000
O    -1.206000000    -3.527000000     3.545000000
C     0.840000000    -2.721000000     4.405000000
C     1.534000000    -4.038000000     3.920000000
H     2.525000000    -4.107000000     4.372000000
C     1.796000000    -4.002000000     2.404000000
C     3.011000000    -3.596000000     1.920000000
H     3.758000000    -3.296000000     2.651000000
H     1.026000000    -4.977000000     4.152000000
C     1.612000000    -1.573000000     4.759000000
H     2.690000000    -1.605000000     4.895000000
C     0.994000000    -0.314000000     4.970000000
C     1.790000000     0.914000000     5.285000000
H     2.696000000     0.590000000     5.801000000
H     1.181000000     1.494000000     5.982000000
C     2.082000000     1.743000000     4.023000000
C     3.329000000     1.448000000     3.450000000
H     3.967000000     0.688000000     3.895000000
C     1.220000000     2.672000000     3.452000000
C     1.641000000     3.356000000     2.334000000
H     1.040000000     4.161000000     1.919000000
C     2.874000000     3.038000000     1.774000000
O     3.152000000     3.746000000     0.653000000
C     3.231000000     2.979000000    -0.542000000
C     2.371000000     3.573000000    -1.717000000
C     2.852000000     3.477000000    -3.048000000
H     3.811000000     2.972000000    -3.135000000
C     1.098000000     4.092000000    -1.481000000
H     0.625000000     4.022000000    -0.505000000
O     4.566000000     2.661000000    -0.926000000
H     2.674000000     2.050000000    -0.348000000
C     3.726000000     2.132000000     2.321000000
C     5.135000000     1.763000000     1.767000000
H     5.765000000     1.329000000     2.546000000
H     5.767000000     2.619000000     1.517000000
C     5.036000000     0.853000000     0.614000000
C     4.998000000    -0.532000000     0.919000000
H     5.051000000    -0.877000000     1.949000000
C     4.782000000     1.320000000    -0.706000000
C     4.674000000     0.353000000    -1.711000000
H     4.311000000     0.650000000    -2.692000000
C     4.632000000    -0.971000000    -1.446000000
O     4.002000000    -1.798000000    -2.355000000
C     2.637000000    -2.265000000    -2.185000000
C     1.947000000    -2.112000000    -3.503000000
C     2.591000000    -1.542000000    -4.626000000
H     3.639000000    -1.261000000    -4.574000000
C     0.603000000    -2.499000000    -3.644000000
H     0.169000000    -3.019000000    -2.794000000
O     2.631000000    -3.630000000    -1.678000000
H     2.184000000    -1.605000000    -1.430000000
C     4.805000000    -1.427000000    -0.121000000
C     4.773000000    -2.936000000     0.098000000
H     5.411000000    -3.093000000     0.971000000
H     5.097000000    -3.524000000    -0.762000000
C     3.317000000    -3.401000000     0.539000000
C     2.388000000    -3.822000000    -0.364000000
C     1.188000000    -4.227000000     0.088000000
H     0.404000000    -4.402000000    -0.644000000
C     0.801000000    -4.287000000     1.399000000
O    -0.516000000    -4.613000000     1.615000000
C    -1.278000000    -3.532000000     2.097000000
H    -0.738000000    -2.638000000     1.754000000
C    -2.669000000    -3.513000000     1.560000000
C    -3.775000000    -3.500000000     2.401000000
H    -3.698000000    -3.266000000     3.460000000
C    -2.843000000    -3.624000000     0.190000000
H    -2.061000000    -3.743000000    -0.557000000
C    -4.119000000    -3.663000000    -0.352000000
O    -4.423000000    -3.850000000    -1.657000000
C    -5.235000000    -3.687000000     0.513000000
H    -6.233000000    -3.692000000     0.081000000
C    -5.031000000    -3.480000000     1.851000000
O    -6.124000000    -3.336000000     2.657000000
C    -6.186000000    -2.211000000     3.465000000
C    -5.902000000    -0.902000000     3.039000000
H    -5.743000000    -0.558000000     2.020000000
C    -6.713000000    -2.419000000     4.768000000
H    -7.110000000    -3.416000000     4.944000000
C    -6.741000000    -1.380000000     5.740000000
H    -7.154000000    -1.477000000     6.741000000
C    -6.507000000    -0.065000000     5.305000000
H    -6.646000000     0.794000000     5.956000000
C    -6.141000000     0.102000000     3.958000000
O    -6.002000000     1.416000000     3.618000000
C    -4.870000000     1.949000000     3.071000000
C    -4.998000000     3.063000000     2.278000000
H    -5.972000000     3.432000000     1.966000000
C    -3.845000000     3.702000000     1.840000000
O    -4.057000000     4.927000000     1.192000000
C    -3.103000000     5.672000000     0.392000000
C    -2.378000000     4.984000000    -0.579000000
H    -2.502000000     3.905000000    -0.620000000
C    -2.900000000     7.024000000     0.707000000
H    -3.311000000     7.442000000     1.623000000
C    -2.060000000     7.717000000    -0.145000000
H    -1.824000000     8.777000000    -0.098000000
C    -1.433000000     7.003000000    -1.254000000
H    -0.770000000     7.602000000    -1.872000000
C    -1.534000000     5.610000000    -1.409000000
O    -0.975000000     4.933000000    -2.506000000
C     0.359000000     4.586000000    -2.628000000
C     0.861000000     4.482000000    -3.884000000
H     0.220000000     4.702000000    -4.734000000
C     2.126000000     3.875000000    -4.141000000
O     2.560000000     3.986000000    -5.489000000
C     2.959000000     2.925000000    -6.312000000
C     2.512000000     1.664000000    -6.208000000
H     1.646000000     1.454000000    -5.585000000
C     4.028000000     3.260000000    -7.176000000
H     4.549000000     4.214000000    -7.197000000
C     4.474000000     2.255000000    -8.142000000
H     5.203000000     2.469000000    -8.919000000
C     3.967000000     0.961000000    -8.000000000
H     4.390000000     0.180000000    -8.627000000
C     3.054000000     0.654000000    -7.002000000
O     2.522000000    -0.668000000    -6.917000000
C     1.890000000    -1.250000000    -5.785000000
C     0.530000000    -1.479000000    -5.789000000
H    -0.034000000    -1.067000000    -6.622000000
C    -0.111000000    -2.158000000    -4.786000000
O    -1.498000000    -2.323000000    -4.944000000
C    -2.127000000    -3.404000000    -4.394000000
C    -1.808000000    -4.704000000    -4.780000000
H    -1.114000000    -4.945000000    -5.581000000
C    -2.416000000    -5.806000000    -4.045000000
H    -2.280000000    -6.834000000    -4.370000000
C    -3.358000000    -5.551000000    -3.019000000
H    -3.867000000    -6.372000000    -2.519000000
C    -3.525000000    -4.176000000    -2.547000000
C    -2.992000000    -3.141000000    -3.278000000
H    -3.187000000    -2.154000000    -2.866000000
C    -1.665000000     0.966000000    -2.216000000
H    -1.616000000     1.565000000    -3.122000000
C    -0.510000000     0.388000000    -1.681000000
H     0.469000000     0.441000000    -2.150000000
C    -0.582000000    -0.309000000    -0.494000000
H     0.364000000    -0.717000000    -0.100000000
C    -1.803000000    -0.429000000     0.156000000
H    -1.845000000    -0.897000000     1.137000000
C    -2.990000000     0.123000000    -0.382000000
H    -3.946000000    -0.049000000     0.105000000
C    -2.939000000     0.703000000    -1.658000000
C    -4.237000000     1.142000000    -2.372000000
O    -5.328000000     0.851000000    -1.898000000
O    -4.158000000     1.658000000    -3.490000000
O    -9.654000000    -0.051000000    -4.403000000
H    -9.559000000    -0.846000000    -3.879000000
H    -9.215000000     0.628000000    -3.890000000
O    -6.220000000    -1.390000000    -3.570000000
H    -6.737000000    -1.607000000    -2.795000000
H    -5.600000000    -0.726000000    -3.267000000
O    -7.970000000     1.298000000    -7.571000000
H    -7.301000000     0.845000000    -7.058000000
H    -8.682000000     0.662000000    -7.650000000
O    -9.323000000     3.907000000    -3.980000000
H    -9.220000000     3.921000000    -4.931000000
H    -8.436000000     3.779000000    -3.645000000
O    -5.688000000     6.107000000    -2.161000000
H    -5.433000000     6.850000000    -2.709000000
H    -5.583000000     5.344000000    -2.729000000
O    -3.484000000    -1.789000000    -7.752000000
H    -3.482000000    -1.356000000    -6.898000000
H    -3.802000000    -2.673000000    -7.570000000
O    -7.955000000    -1.990000000    -1.410000000
H    -8.864000000    -1.878000000    -1.690000000
H    -7.978000000    -1.852000000    -0.463000000
O    -7.067000000     3.566000000    -0.475000000
H    -6.185000000     3.934000000    -0.536000000
H    -7.601000000     4.281000000    -0.127000000
O    -3.689000000     5.029000000    -4.248000000
H    -3.255000000     4.585000000    -3.519000000
H    -4.191000000     4.340000000    -4.683000000
O    -6.327000000    -4.560000000    -3.561000000
H    -6.513000000    -5.287000000    -2.967000000
H    -6.255000000    -3.796000000    -2.990000000
O    -6.443000000    -0.335000000    -6.139000000
H    -5.489000000    -0.406000000    -6.129000000
H    -6.726000000    -0.790000000    -5.345000000
O    -5.171000000    -3.299000000    -5.798000000
H    -5.209000000    -4.117000000    -5.303000000
H    -5.234000000    -2.614000000    -5.133000000
O    -3.948000000    -0.761000000    -5.195000000
H    -3.789000000     0.020000000    -4.665000000
H    -3.165000000    -1.298000000    -5.069000000
O    -8.644000000    -1.282000000     1.306000000
H    -8.047000000    -0.538000000     1.389000000
H    -9.512000000    -0.912000000     1.464000000
O    -7.613000000     1.433000000    -2.745000000
H    -7.272000000     2.148000000    -3.282000000
H    -6.835000000     1.033000000    -2.356000000
O    -3.585000000     2.546000000    -6.000000000
H    -3.396000000     1.938000000    -6.715000000
H    -3.860000000     1.986000000    -5.275000000
O    -6.160000000     2.728000000    -4.617000000
H    -5.524000000     2.300000000    -4.043000000
H    -5.741000000     2.732000000    -5.478000000
O    -6.741000000     1.011000000     0.367000000
H    -6.345000000     0.686000000    -0.441000000
H    -7.073000000     1.879000000     0.139000000
O   -10.033000000     1.718000000    -0.959000000
H    -9.162000000     1.577000000    -1.328000000
H   -10.634000000     1.407000000    -1.636000000
