215
-1461.02897
C    -3.237000000     2.671000000     2.450000000
H    -2.421000000     3.228000000     1.996000000
C    -2.946000000     1.575000000     3.345000000
C    -4.031000000     0.789000000     3.746000000
H    -3.897000000    -0.044000000     4.432000000
C    -1.558000000     1.440000000     3.822000000
O    -0.818000000     2.610000000     4.317000000
H    -0.968000000     0.968000000     3.023000000
O    -1.484000000     0.532000000     4.916000000
C    -0.723000000    -0.631000000     4.818000000
C    -1.349000000    -1.746000000     4.340000000
H    -2.431000000    -1.736000000     4.239000000
C    -0.565000000    -2.807000000     3.900000000
O    -1.099000000    -3.843000000     3.171000000
C     0.815000000    -2.835000000     4.228000000
C     1.736000000    -3.896000000     3.640000000
H     2.619000000    -3.897000000     4.283000000
C     2.168000000    -3.582000000     2.215000000
C     3.387000000    -2.908000000     1.935000000
H     3.974000000    -2.514000000     2.761000000
H     1.304000000    -4.899000000     3.636000000
C     1.389000000    -1.735000000     4.906000000
H     2.452000000    -1.738000000     5.133000000
C     0.592000000    -0.636000000     5.229000000
C     1.233000000     0.766000000     5.622000000
H     2.191000000     0.528000000     6.087000000
H     0.571000000     1.124000000     6.414000000
C     1.477000000     1.772000000     4.446000000
C     2.718000000     1.721000000     3.823000000
H     3.476000000     1.082000000     4.270000000
C     0.482000000     2.632000000     3.923000000
C     0.808000000     3.285000000     2.758000000
H     0.059000000     3.984000000     2.394000000
C     2.035000000     3.272000000     2.163000000
O     2.278000000     4.024000000     0.953000000
C     2.460000000     3.288000000    -0.330000000
C     1.678000000     3.954000000    -1.524000000
C     2.268000000     4.073000000    -2.772000000
H     3.295000000     3.754000000    -2.930000000
C     0.369000000     4.458000000    -1.303000000
H    -0.162000000     4.287000000    -0.370000000
O     3.856000000     3.261000000    -0.583000000
H     2.028000000     2.292000000    -0.152000000
C     3.050000000     2.478000000     2.687000000
C     4.453000000     2.543000000     2.179000000
H     5.194000000     2.301000000     2.943000000
H     4.737000000     3.549000000     1.864000000
C     4.683000000     1.641000000     0.943000000
C     5.036000000     0.276000000     1.153000000
H     5.157000000    -0.079000000     2.174000000
C     4.470000000     2.080000000    -0.352000000
C     4.610000000     1.235000000    -1.463000000
H     4.317000000     1.655000000    -2.421000000
C     4.681000000    -0.103000000    -1.192000000
O     4.559000000    -0.942000000    -2.235000000
C     3.210000000    -1.582000000    -2.357000000
C     2.589000000    -1.549000000    -3.785000000
C     3.042000000    -0.701000000    -4.804000000
H     3.976000000    -0.232000000    -4.504000000
C     1.358000000    -2.127000000    -3.942000000
H     0.865000000    -2.649000000    -3.126000000
O     3.263000000    -2.948000000    -1.831000000
H     2.575000000    -1.060000000    -1.626000000
C     4.950000000    -0.595000000     0.082000000
C     5.172000000    -2.007000000     0.410000000
H     5.858000000    -2.126000000     1.251000000
H     5.686000000    -2.534000000    -0.396000000
C     3.836000000    -2.700000000     0.632000000
C     3.023000000    -3.146000000    -0.476000000
C     1.790000000    -3.737000000    -0.134000000
H     1.086000000    -3.953000000    -0.933000000
C     1.389000000    -4.053000000     1.154000000
O     0.181000000    -4.565000000     1.328000000
C    -1.006000000    -3.748000000     1.780000000
H    -0.733000000    -2.702000000     1.576000000
C    -2.252000000    -4.004000000     0.963000000
C    -3.504000000    -3.688000000     1.463000000
H    -3.589000000    -3.275000000     2.465000000
C    -2.146000000    -4.336000000    -0.363000000
H    -1.129000000    -4.484000000    -0.718000000
C    -3.247000000    -4.578000000    -1.186000000
O    -3.112000000    -5.302000000    -2.341000000
C    -4.520000000    -4.257000000    -0.676000000
H    -5.418000000    -4.462000000    -1.253000000
C    -4.643000000    -3.823000000     0.639000000
O    -5.946000000    -3.644000000     1.124000000
C    -6.219000000    -3.066000000     2.358000000
C    -6.093000000    -1.707000000     2.497000000
H    -5.550000000    -1.102000000     1.775000000
C    -6.964000000    -3.744000000     3.312000000
H    -7.327000000    -4.752000000     3.130000000
C    -7.397000000    -3.192000000     4.525000000
H    -7.932000000    -3.803000000     5.248000000
C    -7.121000000    -1.835000000     4.715000000
H    -7.499000000    -1.208000000     5.519000000
C    -6.481000000    -1.142000000     3.684000000
O    -6.326000000     0.272000000     3.840000000
C    -5.321000000     1.011000000     3.260000000
C    -5.632000000     2.107000000     2.389000000
H    -6.649000000     2.271000000     2.043000000
C    -4.584000000     2.820000000     1.864000000
O    -4.778000000     3.726000000     0.850000000
C    -3.857000000     4.641000000     0.506000000
C    -3.301000000     4.615000000    -0.747000000
H    -3.519000000     3.757000000    -1.377000000
C    -3.393000000     5.585000000     1.478000000
H    -3.877000000     5.657000000     2.449000000
C    -2.524000000     6.596000000     1.104000000
H    -2.359000000     7.488000000     1.703000000
C    -2.025000000     6.550000000    -0.184000000
H    -1.320000000     7.344000000    -0.417000000
C    -2.367000000     5.544000000    -1.074000000
O    -1.600000000     5.506000000    -2.210000000
C    -0.388000000     5.036000000    -2.301000000
C     0.233000000     5.107000000    -3.544000000
H    -0.322000000     5.653000000    -4.302000000
C     1.457000000     4.525000000    -3.815000000
O     1.893000000     4.713000000    -5.084000000
C     2.875000000     3.875000000    -5.665000000
C     2.555000000     2.518000000    -5.894000000
H     1.552000000     2.142000000    -5.710000000
C     4.122000000     4.365000000    -5.970000000
H     4.474000000     5.380000000    -5.804000000
C     5.061000000     3.402000000    -6.492000000
H     6.076000000     3.688000000    -6.755000000
C     4.676000000     2.044000000    -6.781000000
H     5.238000000     1.345000000    -7.394000000
C     3.401000000     1.657000000    -6.486000000
O     2.856000000     0.451000000    -6.896000000
C     2.383000000    -0.363000000    -5.911000000
C     1.110000000    -0.919000000    -6.022000000
H     0.490000000    -0.578000000    -6.847000000
C     0.621000000    -1.788000000    -5.053000000
O    -0.585000000    -2.279000000    -5.164000000
C    -0.897000000    -3.567000000    -4.695000000
C    -0.404000000    -4.604000000    -5.425000000
H     0.316000000    -4.467000000    -6.228000000
C    -0.600000000    -5.862000000    -4.924000000
H    -0.171000000    -6.686000000    -5.489000000
C    -1.496000000    -6.101000000    -3.868000000
H    -1.836000000    -7.067000000    -3.504000000
C    -2.094000000    -5.033000000    -3.264000000
C    -1.860000000    -3.723000000    -3.716000000
H    -2.342000000    -2.841000000    -3.301000000
C    -0.892000000     1.394000000    -1.933000000
H    -0.534000000     1.787000000    -2.881000000
C     0.048000000     0.956000000    -0.970000000
H     1.109000000     0.952000000    -1.204000000
C    -0.355000000     0.400000000     0.255000000
H     0.393000000    -0.038000000     0.934000000
C    -1.705000000     0.207000000     0.449000000
H    -2.108000000    -0.243000000     1.353000000
C    -2.622000000     0.573000000    -0.551000000
H    -3.657000000     0.326000000    -0.331000000
C    -2.278000000     1.129000000    -1.756000000
C    -3.332000000     1.323000000    -2.886000000
O    -4.455000000     0.863000000    -2.673000000
O    -3.004000000     1.759000000    -3.975000000
O    -4.631000000    -1.736000000    -3.136000000
H    -5.252000000    -2.203000000    -2.576000000
H    -4.596000000    -0.853000000    -2.769000000
O    -8.681000000    -0.390000000    -2.962000000
H    -9.507000000     0.083000000    -2.859000000
H    -8.033000000     0.162000000    -2.525000000
O    -6.160000000     2.841000000    -8.365000000
H    -5.904000000     2.455000000    -9.203000000
H    -5.827000000     2.229000000    -7.708000000
O    -6.222000000     5.293000000    -3.611000000
H    -5.394000000     5.000000000    -3.991000000
H    -6.609000000     5.854000000    -4.283000000
O    -1.786000000    -0.514000000    -7.582000000
H    -2.564000000    -0.608000000    -8.131000000
H    -1.985000000    -1.023000000    -6.796000000
O    -0.229000000     3.956000000    -7.022000000
H    -0.837000000     3.429000000    -6.504000000
H     0.551000000     4.033000000    -6.471000000
O    -7.066000000    -2.358000000    -1.915000000
H    -7.719000000    -3.051000000    -1.819000000
H    -7.579000000    -1.552000000    -1.969000000
O    -6.650000000    -2.465000000    -5.668000000
H    -6.611000000    -1.607000000    -5.244000000
H    -7.561000000    -2.739000000    -5.570000000
O    -4.885000000     5.020000000    -6.903000000
H    -5.722000000     4.589000000    -7.076000000
H    -4.521000000     4.544000000    -6.157000000
O    -8.144000000     0.323000000     0.769000000
H    -7.713000000     0.296000000    -0.086000000
H    -8.240000000     1.256000000     0.959000000
O    -2.114000000     6.555000000    -6.286000000
H    -2.498000000     7.163000000    -6.917000000
H    -2.514000000     5.711000000    -6.492000000
O    -5.116000000    -4.471000000    -4.262000000
H    -4.455000000    -4.039000000    -3.720000000
H    -5.763000000    -3.788000000    -4.440000000
O    -4.236000000     1.707000000    -6.452000000
H    -4.329000000     0.755000000    -6.489000000
H    -3.842000000     1.877000000    -5.597000000
O    -3.937000000    -1.020000000    -5.858000000
H    -4.660000000    -1.396000000    -6.361000000
H    -4.228000000    -1.071000000    -4.947000000
O    -1.155000000     1.666000000    -5.855000000
H    -1.676000000     1.649000000    -5.052000000
H    -1.467000000     0.915000000    -6.359000000
O    -6.283000000     0.198000000    -4.662000000
H    -5.628000000     0.345000000    -3.980000000
H    -6.775000000     1.018000000    -4.702000000
O    -3.979000000     4.217000000    -4.043000000
H    -3.652000000     3.323000000    -3.945000000
H    -3.290000000     4.766000000    -3.669000000
O    -7.013000000     3.735000000    -1.461000000
H    -6.782000000     4.225000000    -2.250000000
H    -6.550000000     4.186000000    -0.755000000
O    -6.774000000     0.911000000    -1.670000000
H    -5.880000000     0.841000000    -2.003000000
H    -6.957000000     1.850000000    -1.669000000
