215
-1429.71870
C    -2.802000000     3.244000000     2.412000000
H    -1.927000000     3.840000000     2.165000000
C    -2.633000000     2.048000000     3.112000000
C    -3.774000000     1.258000000     3.415000000
H    -3.636000000     0.324000000     3.953000000
C    -1.216000000     1.577000000     3.549000000
O    -0.342000000     2.648000000     3.991000000
H    -0.670000000     1.036000000     2.762000000
O    -1.365000000     0.769000000     4.780000000
C    -0.627000000    -0.377000000     4.799000000
C    -1.272000000    -1.542000000     4.312000000
H    -2.344000000    -1.554000000     4.137000000
C    -0.485000000    -2.631000000     4.022000000
O    -1.153000000    -3.620000000     3.414000000
C     0.914000000    -2.606000000     4.141000000
C     1.677000000    -3.801000000     3.617000000
H     2.564000000    -3.808000000     4.254000000
C     2.032000000    -3.805000000     2.183000000
C     3.265000000    -3.323000000     1.870000000
H     3.963000000    -3.008000000     2.641000000
H     1.213000000    -4.771000000     3.804000000
C     1.557000000    -1.531000000     4.719000000
H     2.642000000    -1.476000000     4.765000000
C     0.768000000    -0.372000000     4.888000000
C     1.520000000     0.911000000     5.273000000
H     2.427000000     0.668000000     5.832000000
H     0.974000000     1.536000000     5.983000000
C     1.854000000     1.717000000     4.090000000
C     3.080000000     1.620000000     3.425000000
H     3.863000000     0.960000000     3.789000000
C     0.947000000     2.607000000     3.611000000
C     1.293000000     3.370000000     2.497000000
H     0.539000000     3.952000000     1.972000000
C     2.561000000     3.292000000     1.842000000
O     2.832000000     4.046000000     0.710000000
C     2.955000000     3.252000000    -0.507000000
C     2.320000000     3.873000000    -1.698000000
C     2.835000000     3.992000000    -2.994000000
H     3.905000000     3.872000000    -3.145000000
C     0.951000000     4.084000000    -1.518000000
H     0.529000000     3.783000000    -0.563000000
O     4.365000000     2.935000000    -0.754000000
H     2.317000000     2.383000000    -0.289000000
C     3.492000000     2.371000000     2.303000000
C     4.905000000     2.179000000     1.886000000
H     5.496000000     1.672000000     2.651000000
H     5.372000000     3.116000000     1.574000000
C     5.001000000     1.232000000     0.671000000
C     5.070000000    -0.139000000     0.924000000
H     5.133000000    -0.584000000     1.914000000
C     4.676000000     1.635000000    -0.603000000
C     4.454000000     0.701000000    -1.602000000
H     4.104000000     0.913000000    -2.609000000
C     4.496000000    -0.650000000    -1.301000000
O     4.331000000    -1.521000000    -2.358000000
C     2.987000000    -2.089000000    -2.311000000
C     2.295000000    -1.887000000    -3.628000000
C     2.596000000    -0.959000000    -4.627000000
H     3.526000000    -0.438000000    -4.413000000
C     0.998000000    -2.436000000    -3.768000000
H     0.566000000    -2.925000000    -2.899000000
O     3.019000000    -3.438000000    -1.852000000
H     2.382000000    -1.436000000    -1.666000000
C     4.933000000    -1.087000000    -0.081000000
C     4.962000000    -2.599000000     0.158000000
H     5.705000000    -2.820000000     0.928000000
H     5.289000000    -3.091000000    -0.760000000
C     3.604000000    -3.221000000     0.544000000
C     2.787000000    -3.640000000    -0.446000000
C     1.529000000    -4.101000000    -0.145000000
H     0.892000000    -4.607000000    -0.865000000
C     1.115000000    -4.234000000     1.196000000
O    -0.190000000    -4.701000000     1.528000000
C    -1.117000000    -3.684000000     1.995000000
H    -0.791000000    -2.696000000     1.635000000
C    -2.531000000    -3.779000000     1.423000000
C    -3.653000000    -3.847000000     2.234000000
H    -3.575000000    -3.656000000     3.301000000
C    -2.721000000    -3.831000000     0.053000000
H    -1.882000000    -3.872000000    -0.637000000
C    -4.017000000    -3.997000000    -0.469000000
O    -4.232000000    -4.245000000    -1.798000000
C    -5.144000000    -4.070000000     0.344000000
H    -6.137000000    -4.296000000    -0.034000000
C    -4.948000000    -3.858000000     1.727000000
O    -6.012000000    -3.803000000     2.615000000
C    -6.301000000    -2.637000000     3.331000000
C    -5.919000000    -1.321000000     3.043000000
H    -5.259000000    -1.118000000     2.204000000
C    -7.213000000    -2.859000000     4.396000000
H    -7.531000000    -3.881000000     4.586000000
C    -7.632000000    -1.788000000     5.183000000
H    -8.420000000    -1.816000000     5.931000000
C    -7.329000000    -0.429000000     4.795000000
H    -7.733000000     0.445000000     5.301000000
C    -6.406000000    -0.183000000     3.807000000
O    -6.138000000     1.110000000     3.404000000
C    -5.025000000     1.693000000     2.962000000
C    -5.185000000     2.846000000     2.239000000
H    -6.149000000     3.245000000     1.933000000
C    -4.070000000     3.644000000     1.976000000
O    -4.331000000     4.812000000     1.322000000
C    -3.319000000     5.396000000     0.554000000
C    -2.829000000     4.793000000    -0.616000000
H    -3.339000000     3.882000000    -0.919000000
C    -2.762000000     6.660000000     0.860000000
H    -3.125000000     7.190000000     1.737000000
C    -1.717000000     7.239000000     0.133000000
H    -1.334000000     8.233000000     0.346000000
C    -1.280000000     6.565000000    -1.048000000
H    -0.519000000     7.059000000    -1.648000000
C    -1.815000000     5.316000000    -1.392000000
O    -1.215000000     4.565000000    -2.374000000
C     0.128000000     4.471000000    -2.533000000
C     0.707000000     4.574000000    -3.815000000
H     0.085000000     4.998000000    -4.599000000
C     2.027000000     4.430000000    -4.050000000
O     2.512000000     4.576000000    -5.275000000
C     3.062000000     3.487000000    -5.950000000
C     2.400000000     2.212000000    -6.007000000
H     1.390000000     2.087000000    -5.626000000
C     4.203000000     3.651000000    -6.751000000
H     4.767000000     4.580000000    -6.710000000
C     4.907000000     2.579000000    -7.278000000
H     5.867000000     2.596000000    -7.787000000
C     4.296000000     1.295000000    -7.227000000
H     4.793000000     0.400000000    -7.591000000
C     3.001000000     1.138000000    -6.710000000
O     2.310000000    -0.038000000    -6.890000000
C     1.876000000    -0.866000000    -5.815000000
C     0.653000000    -1.552000000    -6.001000000
H     0.098000000    -1.449000000    -6.930000000
C     0.234000000    -2.303000000    -4.928000000
O    -1.081000000    -2.707000000    -5.020000000
C    -1.634000000    -3.714000000    -4.228000000
C    -1.261000000    -5.009000000    -4.588000000
H    -0.514000000    -5.242000000    -5.342000000
C    -1.866000000    -6.048000000    -3.895000000
H    -1.587000000    -7.068000000    -4.148000000
C    -2.777000000    -5.781000000    -2.909000000
H    -3.274000000    -6.668000000    -2.525000000
C    -3.247000000    -4.481000000    -2.693000000
C    -2.592000000    -3.425000000    -3.243000000
H    -2.821000000    -2.395000000    -2.983000000
C    -1.424000000     1.274000000    -2.007000000
H    -1.343000000     1.717000000    -2.997000000
C    -0.245000000     0.744000000    -1.404000000
H     0.709000000     0.890000000    -1.904000000
C    -0.356000000     0.084000000    -0.142000000
H     0.512000000    -0.358000000     0.270000000
C    -1.584000000     0.081000000     0.479000000
H    -1.667000000    -0.513000000     1.386000000
C    -2.743000000     0.501000000    -0.152000000
H    -3.750000000     0.427000000     0.250000000
C    -2.693000000     0.999000000    -1.417000000
C    -3.861000000     1.435000000    -2.171000000
O    -4.988000000     1.202000000    -1.731000000
O    -3.739000000     1.680000000    -3.310000000
O    -5.338000000    -1.029000000    -2.976000000
H    -6.051000000    -1.378000000    -2.441000000
H    -5.265000000    -0.113000000    -2.709000000
O    -6.164000000     1.144000000    -7.975000000
H    -6.040000000     0.913000000    -7.054000000
H    -5.799000000     0.403000000    -8.459000000
O    -6.629000000     5.072000000    -3.866000000
H    -7.045000000     4.215000000    -3.950000000
H    -6.672000000     5.269000000    -2.930000000
O    -7.090000000     5.675000000    -0.810000000
H    -6.319000000     6.199000000    -0.591000000
H    -7.830000000     6.200000000    -0.504000000
O    -2.843000000    -1.123000000    -7.200000000
H    -2.380000000    -0.529000000    -6.609000000
H    -3.363000000    -1.680000000    -6.621000000
O    -3.385000000     7.468000000    -4.298000000
H    -3.492000000     6.773000000    -3.648000000
H    -3.508000000     7.029000000    -5.140000000
O    -7.821000000    -1.537000000    -1.649000000
H    -8.714000000    -1.228000000    -1.803000000
H    -7.911000000    -2.483000000    -1.537000000
O    -8.971000000     3.298000000    -0.292000000
H    -8.654000000     2.899000000    -1.103000000
H    -8.242000000     3.842000000     0.007000000
O    -1.693000000     1.711000000    -8.076000000
H    -1.811000000     1.477000000    -7.156000000
H    -1.183000000     2.521000000    -8.054000000
O    -4.521000000     5.773000000    -5.839000000
H    -4.328000000     5.222000000    -5.080000000
H    -5.286000000     5.364000000    -6.243000000
O    -5.523000000     0.681000000    -5.325000000
H    -5.205000000    -0.219000000    -5.399000000
H    -5.043000000     1.044000000    -4.581000000
O    -4.591000000    -2.385000000    -5.248000000
H    -5.329000000    -2.994000000    -5.274000000
H    -4.683000000    -1.931000000    -4.411000000
O    -1.966000000     0.848000000    -5.284000000
H    -2.517000000     1.269000000    -4.624000000
H    -1.308000000     0.371000000    -4.778000000
O    -8.018000000    -0.011000000    -4.322000000
H    -7.216000000     0.309000000    -4.735000000
H    -7.774000000    -0.860000000    -3.951000000
O    -3.762000000     3.930000000    -4.141000000
H    -3.839000000     2.995000000    -3.953000000
H    -2.935000000     4.189000000    -3.734000000
O    -7.052000000     2.463000000    -3.069000000
H    -6.180000000     2.207000000    -2.769000000
H    -7.396000000     1.681000000    -3.501000000
O    -6.336000000     6.137000000     2.346000000
H    -5.816000000     6.843000000     2.729000000
H    -5.725000000     5.672000000     1.775000000
O    -7.134000000     0.629000000    -0.088000000
H    -6.492000000     1.249000000    -0.434000000
H    -7.232000000    -0.026000000    -0.778000000
O   -10.118000000     1.025000000    -2.555000000
H    -9.593000000     0.947000000    -3.352000000
H   -10.671000000     1.791000000    -2.706000000
