215
-1430.36688
C    -1.622000000     4.103000000     3.259000000
H    -0.766000000     4.661000000     2.887000000
C    -1.566000000     2.922000000     3.884000000
C    -2.733000000     2.441000000     4.429000000
H    -2.663000000     1.463000000     4.897000000
C    -0.258000000     2.127000000     3.948000000
O     0.940000000     2.933000000     4.092000000
H    -0.268000000     1.518000000     3.032000000
O    -0.257000000     1.161000000     5.036000000
C     0.158000000    -0.103000000     4.763000000
C    -0.716000000    -1.056000000     4.293000000
H    -1.784000000    -0.857000000     4.282000000
C    -0.285000000    -2.327000000     3.861000000
O    -1.263000000    -3.278000000     3.381000000
C     1.067000000    -2.687000000     3.895000000
C     1.584000000    -4.042000000     3.501000000
H     2.569000000    -4.203000000     3.945000000
C     1.709000000    -4.220000000     1.977000000
C     2.944000000    -3.818000000     1.390000000
H     3.802000000    -3.452000000     1.949000000
H     0.874000000    -4.728000000     3.969000000
C     1.951000000    -1.710000000     4.438000000
H     3.018000000    -1.897000000     4.533000000
C     1.492000000    -0.415000000     4.753000000
C     2.560000000     0.642000000     5.037000000
H     3.481000000     0.216000000     5.442000000
H     2.226000000     1.370000000     5.779000000
C     2.804000000     1.444000000     3.728000000
C     3.920000000     1.096000000     2.936000000
H     4.592000000     0.321000000     3.296000000
C     2.000000000     2.501000000     3.367000000
C     2.104000000     3.078000000     2.131000000
H     1.406000000     3.854000000     1.828000000
C     3.208000000     2.804000000     1.282000000
O     3.248000000     3.483000000     0.125000000
C     2.878000000     2.730000000    -1.001000000
C     2.163000000     3.530000000    -2.014000000
C     2.502000000     3.537000000    -3.424000000
H     3.393000000     2.998000000    -3.736000000
C     1.052000000     4.185000000    -1.543000000
H     0.821000000     4.158000000    -0.481000000
O     4.036000000     2.170000000    -1.571000000
H     2.283000000     1.878000000    -0.638000000
C     4.084000000     1.725000000     1.691000000
C     5.334000000     1.343000000     0.823000000
H     6.104000000     0.904000000     1.460000000
H     5.699000000     2.288000000     0.413000000
C     4.923000000     0.355000000    -0.171000000
C     5.020000000    -1.003000000     0.028000000
H     5.378000000    -1.383000000     0.981000000
C     4.335000000     0.832000000    -1.391000000
C     3.924000000    -0.100000000    -2.398000000
H     3.545000000     0.278000000    -3.344000000
C     3.907000000    -1.426000000    -2.072000000
O     3.335000000    -2.224000000    -2.986000000
C     2.012000000    -2.749000000    -2.644000000
C     1.070000000    -2.542000000    -3.851000000
C     1.278000000    -1.544000000    -4.839000000
H     2.187000000    -0.957000000    -4.740000000
C    -0.137000000    -3.282000000    -3.846000000
H    -0.343000000    -4.091000000    -3.149000000
O     2.108000000    -4.097000000    -2.189000000
H     1.638000000    -2.111000000    -1.830000000
C     4.396000000    -1.927000000    -0.827000000
C     4.407000000    -3.476000000    -0.575000000
H     5.257000000    -3.802000000     0.028000000
H     4.608000000    -3.888000000    -1.566000000
C     3.105000000    -3.882000000     0.015000000
C     2.066000000    -4.306000000    -0.792000000
C     0.810000000    -4.663000000    -0.226000000
H    -0.066000000    -4.921000000    -0.816000000
C     0.637000000    -4.599000000     1.141000000
O    -0.651000000    -4.670000000     1.633000000
C    -1.314000000    -3.422000000     1.938000000
H    -0.770000000    -2.619000000     1.420000000
C    -2.769000000    -3.280000000     1.490000000
C    -3.524000000    -2.173000000     1.789000000
H    -3.084000000    -1.499000000     2.520000000
C    -3.265000000    -4.192000000     0.587000000
H    -2.694000000    -5.072000000     0.303000000
C    -4.497000000    -3.840000000    -0.071000000
O    -4.987000000    -4.592000000    -1.111000000
C    -5.276000000    -2.784000000     0.262000000
H    -6.276000000    -2.671000000    -0.147000000
C    -4.836000000    -1.924000000     1.303000000
O    -5.674000000    -0.892000000     1.684000000
C    -5.750000000    -0.400000000     2.914000000
C    -5.380000000     0.892000000     3.176000000
H    -5.026000000     1.478000000     2.331000000
C    -6.219000000    -1.193000000     3.920000000
H    -6.556000000    -2.193000000     3.660000000
C    -6.379000000    -0.659000000     5.203000000
H    -6.758000000    -1.240000000     6.040000000
C    -6.060000000     0.609000000     5.458000000
H    -6.240000000     0.974000000     6.466000000
C    -5.525000000     1.423000000     4.406000000
O    -5.056000000     2.642000000     4.760000000
C    -3.910000000     3.139000000     4.306000000
C    -3.952000000     4.346000000     3.570000000
H    -4.873000000     4.896000000     3.395000000
C    -2.814000000     4.781000000     3.056000000
O    -2.852000000     6.008000000     2.374000000
C    -1.932000000     6.309000000     1.401000000
C    -1.914000000     5.683000000     0.124000000
H    -2.593000000     4.848000000    -0.024000000
C    -1.102000000     7.416000000     1.650000000
H    -1.263000000     7.982000000     2.564000000
C    -0.064000000     7.679000000     0.808000000
H     0.516000000     8.557000000     1.080000000
C    -0.026000000     7.121000000    -0.461000000
H     0.676000000     7.442000000    -1.227000000
C    -0.965000000     6.157000000    -0.835000000
O    -0.922000000     5.487000000    -2.016000000
C     0.145000000     4.804000000    -2.425000000
C     0.509000000     4.835000000    -3.795000000
H    -0.143000000     5.344000000    -4.500000000
C     1.623000000     4.181000000    -4.283000000
O     1.748000000     4.047000000    -5.629000000
C     2.166000000     2.808000000    -6.136000000
C     1.240000000     1.713000000    -6.175000000
H     0.245000000     1.807000000    -5.749000000
C     3.399000000     2.625000000    -6.757000000
H     4.121000000     3.432000000    -6.658000000
C     3.791000000     1.342000000    -7.116000000
H     4.827000000     1.224000000    -7.423000000
C     2.834000000     0.284000000    -7.198000000
H     3.210000000    -0.624000000    -7.661000000
C     1.546000000     0.449000000    -6.741000000
O     0.501000000    -0.453000000    -6.834000000
C     0.357000000    -1.302000000    -5.803000000
C    -0.866000000    -1.994000000    -5.787000000
H    -1.653000000    -1.900000000    -6.530000000
C    -1.053000000    -3.016000000    -4.851000000
O    -2.196000000    -3.758000000    -5.006000000
C    -2.800000000    -4.661000000    -4.147000000
C    -2.477000000    -5.976000000    -4.105000000
H    -1.791000000    -6.382000000    -4.844000000
C    -3.073000000    -6.873000000    -3.197000000
H    -2.768000000    -7.913000000    -3.268000000
C    -3.950000000    -6.402000000    -2.220000000
H    -4.371000000    -7.093000000    -1.495000000
C    -4.222000000    -5.041000000    -2.159000000
C    -3.685000000    -4.184000000    -3.172000000
H    -3.888000000    -3.123000000    -3.293000000
C    -1.003000000     1.014000000    -1.651000000
H    -1.012000000     1.081000000    -2.735000000
C     0.085000000     0.401000000    -1.044000000
H     0.923000000     0.042000000    -1.635000000
C     0.034000000     0.079000000     0.280000000
H     0.860000000    -0.605000000     0.651000000
C    -1.069000000     0.388000000     1.044000000
H    -1.195000000     0.042000000     2.066000000
C    -2.101000000     1.173000000     0.493000000
H    -2.958000000     1.443000000     1.105000000
C    -2.140000000     1.463000000    -0.900000000
C    -3.326000000     2.011000000    -1.619000000
O    -4.428000000     1.812000000    -1.174000000
O    -3.277000000     2.397000000    -2.750000000
O    -6.609000000     2.562000000    -6.779000000
H    -5.754000000     2.968000000    -6.638000000
H    -6.420000000     1.627000000    -6.860000000
O    -6.769000000     2.117000000    -3.006000000
H    -7.167000000     1.398000000    -2.514000000
H    -5.838000000     2.066000000    -2.793000000
O    -5.693000000     7.019000000    -4.692000000
H    -5.544000000     6.162000000    -4.292000000
H    -6.552000000     7.289000000    -4.368000000
O    -9.079000000     5.297000000    -1.139000000
H    -9.872000000     5.547000000    -0.664000000
H    -9.041000000     4.344000000    -1.059000000
O    -7.067000000    -2.158000000    -2.602000000
H    -6.710000000    -2.777000000    -3.238000000
H    -6.326000000    -1.597000000    -2.372000000
O    -8.807000000    -0.292000000     1.879000000
H    -7.934000000     0.005000000     2.137000000
H    -9.254000000     0.503000000     1.589000000
O    -2.205000000     2.189000000    -6.780000000
H    -2.168000000     2.584000000    -5.909000000
H    -2.746000000     1.407000000    -6.665000000
O    -8.458000000     2.785000000     2.202000000
H    -7.733000000     2.602000000     1.605000000
H    -8.673000000     3.704000000     2.043000000
O    -5.669000000    -2.440000000    -5.527000000
H    -6.026000000    -3.237000000    -5.135000000
H    -4.910000000    -2.739000000    -6.028000000
O    -6.271000000     3.219000000     0.261000000
H    -5.500000000     2.872000000    -0.188000000
H    -6.510000000     3.999000000    -0.241000000
O    -7.020000000     6.766000000     0.617000000
H    -7.549000000     6.588000000    -0.161000000
H    -7.623000000     7.199000000     1.222000000
O    -8.244000000     3.532000000    -4.817000000
H    -8.160000000     2.808000000    -4.196000000
H    -7.762000000     3.240000000    -5.591000000
O    -9.541000000     1.042000000    -4.502000000
H    -9.922000000     0.243000000    -4.867000000
H    -8.904000000     0.731000000    -3.859000000
O    -4.034000000     0.854000000    -4.500000000
H    -4.276000000     0.047000000    -4.046000000
H    -3.726000000     1.436000000    -3.806000000
O    -5.182000000     4.383000000    -3.742000000
H    -4.437000000     3.798000000    -3.604000000
H    -5.919000000     3.932000000    -3.331000000
O    -8.475000000     0.333000000    -1.848000000
H    -8.054000000    -0.434000000    -1.462000000
H    -9.227000000     0.504000000    -1.281000000
O    -2.341000000     3.997000000    -4.450000000
H    -2.611000000     3.477000000    -3.693000000
H    -2.261000000     4.889000000    -4.112000000
O    -4.488000000     4.325000000    -6.692000000
H    -3.867000000     4.655000000    -7.342000000
H    -3.958000000     4.174000000    -5.909000000
O    -4.951000000    -0.633000000    -2.046000000
H    -4.869000000     0.265000000    -1.726000000
H    -4.689000000    -1.177000000    -1.304000000
