215
-1447.65489
C    -3.588000000     1.888000000     1.781000000
H    -2.814000000     2.649000000     1.728000000
C    -3.269000000     0.684000000     2.449000000
C    -4.231000000    -0.348000000     2.380000000
H    -4.118000000    -1.294000000     2.903000000
C    -1.963000000     0.507000000     3.180000000
O    -1.671000000     1.820000000     3.722000000
H    -1.153000000     0.145000000     2.528000000
O    -2.037000000    -0.407000000     4.259000000
C    -0.963000000    -1.237000000     4.303000000
C    -1.127000000    -2.502000000     3.704000000
H    -2.089000000    -2.812000000     3.305000000
C    -0.002000000    -3.323000000     3.650000000
O    -0.204000000    -4.507000000     2.924000000
C     1.285000000    -2.927000000     4.055000000
C     2.599000000    -3.662000000     3.731000000
H     3.306000000    -3.363000000     4.509000000
C     3.046000000    -3.449000000     2.376000000
C     4.136000000    -2.545000000     2.185000000
H     4.786000000    -2.157000000     2.965000000
H     2.512000000    -4.746000000     3.830000000
C     1.382000000    -1.640000000     4.575000000
H     2.351000000    -1.208000000     4.811000000
C     0.242000000    -0.828000000     4.817000000
C     0.415000000     0.582000000     5.384000000
H     1.264000000     0.639000000     6.068000000
H    -0.415000000     0.873000000     6.031000000
C     0.666000000     1.625000000     4.337000000
C     2.001000000     1.960000000     3.963000000
H     2.836000000     1.520000000     4.503000000
C    -0.331000000     2.212000000     3.546000000
C     0.020000000     3.207000000     2.663000000
H    -0.721000000     3.677000000     2.021000000
C     1.332000000     3.498000000     2.320000000
O     1.481000000     4.400000000     1.335000000
C     1.717000000     3.828000000    -0.016000000
C     0.970000000     4.597000000    -1.071000000
C     1.533000000     4.807000000    -2.306000000
H     2.551000000     4.463000000    -2.472000000
C    -0.312000000     5.165000000    -0.742000000
H    -0.791000000     4.928000000     0.205000000
O     3.174000000     3.918000000    -0.182000000
H     1.466000000     2.759000000    -0.082000000
C     2.376000000     2.917000000     3.029000000
C     3.820000000     3.149000000     2.571000000
H     4.478000000     2.865000000     3.395000000
H     3.891000000     4.207000000     2.307000000
C     4.234000000     2.391000000     1.412000000
C     4.715000000     1.057000000     1.620000000
H     4.857000000     0.695000000     2.635000000
C     3.838000000     2.741000000     0.131000000
C     4.058000000     1.893000000    -0.973000000
H     3.644000000     2.108000000    -1.954000000
C     4.733000000     0.711000000    -0.753000000
O     4.625000000    -0.177000000    -1.782000000
C     3.479000000    -0.978000000    -1.765000000
C     2.638000000    -0.760000000    -3.038000000
C     2.980000000     0.234000000    -3.982000000
H     3.924000000     0.766000000    -3.895000000
C     1.494000000    -1.429000000    -3.166000000
H     1.171000000    -2.196000000    -2.468000000
O     3.945000000    -2.300000000    -1.550000000
H     2.794000000    -0.621000000    -0.983000000
C     5.099000000     0.236000000     0.563000000
C     5.567000000    -1.177000000     0.705000000
H     6.238000000    -1.281000000     1.561000000
H     6.213000000    -1.332000000    -0.162000000
C     4.419000000    -2.162000000     0.890000000
C     3.696000000    -2.662000000    -0.241000000
C     2.694000000    -3.591000000    -0.060000000
H     2.098000000    -4.005000000    -0.869000000
C     2.348000000    -3.941000000     1.220000000
O     1.207000000    -4.758000000     1.200000000
C    -0.095000000    -4.309000000     1.552000000
H    -0.134000000    -3.240000000     1.296000000
C    -1.127000000    -5.073000000     0.785000000
C    -2.435000000    -5.056000000     1.297000000
H    -2.619000000    -4.590000000     2.262000000
C    -0.883000000    -5.582000000    -0.513000000
H     0.114000000    -5.522000000    -0.941000000
C    -1.951000000    -5.986000000    -1.301000000
O    -1.796000000    -6.283000000    -2.625000000
C    -3.235000000    -5.979000000    -0.839000000
H    -4.020000000    -6.497000000    -1.383000000
C    -3.538000000    -5.557000000     0.507000000
O    -4.767000000    -5.738000000     1.062000000
C    -5.556000000    -4.804000000     1.642000000
C    -5.608000000    -3.425000000     1.298000000
H    -4.935000000    -3.230000000     0.467000000
C    -6.332000000    -5.138000000     2.755000000
H    -6.349000000    -6.132000000     3.194000000
C    -7.004000000    -4.202000000     3.477000000
H    -7.462000000    -4.554000000     4.398000000
C    -7.022000000    -2.877000000     3.092000000
H    -7.560000000    -2.160000000     3.706000000
C    -6.295000000    -2.468000000     1.996000000
O    -6.324000000    -1.182000000     1.547000000
C    -5.413000000    -0.188000000     1.709000000
C    -5.601000000     0.970000000     0.949000000
H    -6.505000000     1.016000000     0.348000000
C    -4.700000000     2.026000000     0.988000000
O    -4.815000000     3.104000000     0.085000000
C    -4.389000000     4.328000000     0.184000000
C    -3.459000000     4.861000000    -0.692000000
H    -3.175000000     4.211000000    -1.516000000
C    -4.908000000     5.099000000     1.176000000
H    -5.737000000     4.664000000     1.730000000
C    -4.419000000     6.332000000     1.406000000
H    -4.683000000     6.979000000     2.238000000
C    -3.496000000     6.872000000     0.521000000
H    -3.097000000     7.861000000     0.730000000
C    -3.062000000     6.168000000    -0.593000000
O    -2.058000000     6.695000000    -1.413000000
C    -0.943000000     5.989000000    -1.702000000
C    -0.353000000     6.182000000    -2.927000000
H    -0.893000000     6.854000000    -3.589000000
C     0.843000000     5.587000000    -3.246000000
O     1.535000000     5.888000000    -4.385000000
C     2.296000000     4.978000000    -5.048000000
C     1.976000000     3.629000000    -5.102000000
H     0.959000000     3.489000000    -4.745000000
C     3.448000000     5.394000000    -5.696000000
H     3.758000000     6.434000000    -5.636000000
C     4.270000000     4.458000000    -6.338000000
H     5.280000000     4.725000000    -6.640000000
C     3.898000000     3.128000000    -6.412000000
H     4.540000000     2.472000000    -6.994000000
C     2.777000000     2.692000000    -5.828000000
O     2.392000000     1.406000000    -6.052000000
C     2.082000000     0.535000000    -5.042000000
C     0.918000000    -0.151000000    -5.077000000
H     0.327000000     0.013000000    -5.974000000
C     0.602000000    -1.172000000    -4.162000000
O    -0.526000000    -1.899000000    -4.370000000
C    -0.392000000    -3.275000000    -4.404000000
C     0.654000000    -3.939000000    -5.065000000
H     1.479000000    -3.455000000    -5.581000000
C     0.901000000    -5.323000000    -4.918000000
H     1.873000000    -5.671000000    -5.259000000
C     0.110000000    -6.050000000    -4.053000000
H     0.256000000    -7.122000000    -3.950000000
C    -1.008000000    -5.478000000    -3.472000000
C    -1.210000000    -4.091000000    -3.613000000
H    -2.009000000    -3.644000000    -3.026000000
C    -0.176000000     0.889000000    -1.357000000
H     0.274000000     1.719000000    -1.896000000
C     0.419000000     0.351000000    -0.226000000
H     1.281000000     0.833000000     0.228000000
C    -0.147000000    -0.714000000     0.454000000
H     0.240000000    -1.196000000     1.273000000
C    -1.214000000    -1.329000000    -0.101000000
H    -1.667000000    -2.208000000     0.352000000
C    -1.762000000    -0.841000000    -1.275000000
H    -2.662000000    -1.294000000    -1.683000000
C    -1.229000000     0.255000000    -1.973000000
C    -1.840000000     0.944000000    -3.233000000
O    -2.804000000     0.465000000    -3.758000000
O    -1.325000000     1.956000000    -3.703000000
O    -3.644000000    -2.059000000    -4.337000000
H    -3.273000000    -2.172000000    -5.212000000
H    -3.365000000    -1.184000000    -4.069000000
O     0.711000000     2.624000000    -8.742000000
H     1.060000000     1.929000000    -8.184000000
H    -0.148000000     2.822000000    -8.370000000
O    -1.606000000     0.101000000    -8.163000000
H    -1.762000000    -0.608000000    -7.540000000
H    -1.031000000    -0.284000000    -8.824000000
O    -7.571000000     3.625000000    -0.940000000
H    -7.603000000     4.561000000    -0.745000000
H    -6.685000000     3.359000000    -0.695000000
O    -7.632000000     2.069000000    -7.620000000
H    -7.405000000     1.781000000    -6.736000000
H    -8.187000000     1.369000000    -7.965000000
O    -1.313000000     2.439000000    -6.853000000
H    -1.402000000     1.571000000    -7.247000000
H    -1.371000000     2.282000000    -5.911000000
O    -2.778000000    -2.417000000    -7.145000000
H    -2.139000000    -3.121000000    -7.255000000
H    -3.549000000    -2.717000000    -7.627000000
O    -4.641000000    -4.399000000    -5.865000000
H    -4.596000000    -4.458000000    -4.911000000
H    -4.517000000    -3.468000000    -6.053000000
O    -6.945000000     1.063000000    -5.116000000
H    -7.126000000     0.799000000    -4.214000000
H    -6.058000000     1.422000000    -5.088000000
O    -3.445000000     6.609000000    -5.622000000
H    -3.334000000     7.306000000    -6.268000000
H    -3.529000000     5.811000000    -6.144000000
O    -5.249000000    -3.433000000    -2.788000000
H    -4.556000000    -2.938000000    -3.224000000
H    -5.868000000    -2.767000000    -2.489000000
O    -7.835000000     3.645000000    -3.663000000
H    -7.706000000     3.484000000    -2.729000000
H    -8.106000000     2.798000000    -4.017000000
O    -5.471000000     5.668000000    -3.709000000
H    -4.836000000     4.955000000    -3.649000000
H    -5.252000000     6.116000000    -4.526000000
O    -4.368000000     1.370000000    -5.935000000
H    -4.093000000     0.628000000    -6.473000000
H    -4.060000000     1.155000000    -5.055000000
O    -3.406000000     3.554000000    -4.056000000
H    -2.642000000     3.033000000    -3.811000000
H    -3.744000000     3.128000000    -4.844000000
O    -3.477000000     4.330000000    -7.223000000
H    -2.540000000     4.153000000    -7.304000000
H    -3.900000000     3.544000000    -7.567000000
O     0.949000000     6.701000000    -7.296000000
H     0.728000000     6.164000000    -6.535000000
H     0.868000000     7.603000000    -6.985000000
O    -5.049000000     1.274000000    -3.012000000
H    -4.323000000     0.719000000    -3.296000000
H    -4.637000000     2.103000000    -2.771000000
O    -6.471000000    -1.114000000    -2.130000000
H    -5.959000000    -0.318000000    -2.275000000
H    -7.241000000    -1.007000000    -2.689000000
