215
-1464.63390
C    -3.526000000     1.384000000     2.575000000
H    -2.847000000     2.216000000     2.411000000
C    -3.123000000     0.232000000     3.235000000
C    -4.010000000    -0.787000000     3.363000000
H    -3.748000000    -1.717000000     3.861000000
C    -1.684000000     0.128000000     3.808000000
O    -1.274000000     1.239000000     4.624000000
H    -0.948000000     0.094000000     2.992000000
O    -1.495000000    -1.042000000     4.624000000
C    -0.351000000    -1.834000000     4.340000000
C    -0.613000000    -2.862000000     3.468000000
H    -1.599000000    -3.064000000     3.057000000
C     0.419000000    -3.601000000     2.969000000
O     0.132000000    -4.581000000     2.041000000
C     1.726000000    -3.352000000     3.373000000
C     2.932000000    -4.074000000     2.704000000
H     3.756000000    -4.025000000     3.418000000
C     3.209000000    -3.509000000     1.292000000
C     4.191000000    -2.547000000     1.210000000
H     4.869000000    -2.288000000     2.019000000
H     2.800000000    -5.149000000     2.560000000
C     1.958000000    -2.299000000     4.269000000
H     2.997000000    -2.023000000     4.433000000
C     0.926000000    -1.482000000     4.724000000
C     1.058000000    -0.279000000     5.601000000
H     1.947000000    -0.364000000     6.229000000
H     0.260000000    -0.229000000     6.345000000
C     1.151000000     0.963000000     4.744000000
C     2.405000000     1.495000000     4.350000000
H     3.258000000     0.893000000     4.651000000
C    -0.006000000     1.678000000     4.359000000
C     0.171000000     2.803000000     3.592000000
H    -0.647000000     3.424000000     3.237000000
C     1.413000000     3.274000000     3.122000000
O     1.417000000     4.324000000     2.233000000
C     1.440000000     3.933000000     0.825000000
C     0.442000000     4.750000000     0.000000000
C     0.622000000     4.860000000    -1.440000000
H     1.579000000     4.490000000    -1.799000000
C    -0.575000000     5.363000000     0.587000000
H    -0.776000000     5.329000000     1.655000000
O     2.804000000     4.213000000     0.382000000
H     1.155000000     2.874000000     0.741000000
C     2.560000000     2.557000000     3.489000000
C     3.868000000     2.939000000     2.820000000
H     4.689000000     2.601000000     3.456000000
H     4.064000000     4.013000000     2.833000000
C     4.069000000     2.362000000     1.393000000
C     4.700000000     1.137000000     1.193000000
H     4.887000000     0.502000000     2.055000000
C     3.522000000     3.042000000     0.286000000
C     3.658000000     2.540000000    -0.974000000
H     3.367000000     3.095000000    -1.862000000
C     4.239000000     1.238000000    -1.136000000
O     4.213000000     0.687000000    -2.368000000
C     3.189000000    -0.312000000    -2.550000000
C     2.638000000    -0.237000000    -3.951000000
C     2.376000000     0.989000000    -4.570000000
H     2.768000000     1.862000000    -4.055000000
C     2.495000000    -1.394000000    -4.739000000
H     2.625000000    -2.382000000    -4.303000000
O     3.791000000    -1.653000000    -2.339000000
H     2.340000000    -0.218000000    -1.856000000
C     4.820000000     0.579000000    -0.012000000
C     5.460000000    -0.757000000    -0.086000000
H     6.161000000    -0.847000000     0.747000000
H     6.020000000    -0.850000000    -1.018000000
C     4.428000000    -1.883000000     0.004000000
C     3.758000000    -2.318000000    -1.135000000
C     2.822000000    -3.327000000    -1.143000000
H     2.277000000    -3.615000000    -2.038000000
C     2.506000000    -3.896000000     0.104000000
O     1.490000000    -4.746000000     0.216000000
C     0.262000000    -4.246000000     0.667000000
H     0.320000000    -3.148000000     0.648000000
C    -1.052000000    -4.461000000    -0.210000000
C    -2.320000000    -4.551000000     0.316000000
H    -2.409000000    -4.475000000     1.397000000
C    -0.862000000    -4.382000000    -1.561000000
H     0.115000000    -4.134000000    -1.969000000
C    -1.938000000    -4.588000000    -2.429000000
O    -1.768000000    -4.692000000    -3.840000000
C    -3.196000000    -4.865000000    -1.927000000
H    -4.042000000    -5.103000000    -2.567000000
C    -3.423000000    -4.736000000    -0.567000000
O    -4.701000000    -4.986000000    -0.116000000
C    -5.162000000    -4.604000000     1.186000000
C    -5.386000000    -3.304000000     1.560000000
H    -5.045000000    -2.513000000     0.896000000
C    -5.562000000    -5.668000000     2.060000000
H    -5.445000000    -6.706000000     1.762000000
C    -6.176000000    -5.356000000     3.292000000
H    -6.553000000    -6.091000000     3.999000000
C    -6.434000000    -4.050000000     3.625000000
H    -7.078000000    -3.963000000     4.497000000
C    -5.987000000    -3.027000000     2.788000000
O    -6.270000000    -1.694000000     3.204000000
C    -5.313000000    -0.711000000     2.937000000
C    -5.751000000     0.469000000     2.348000000
H    -6.820000000     0.569000000     2.179000000
C    -4.832000000     1.526000000     2.258000000
O    -5.192000000     2.679000000     1.626000000
C    -4.729000000     3.949000000     1.862000000
C    -3.804000000     4.578000000     1.009000000
H    -3.296000000     3.942000000     0.289000000
C    -5.483000000     4.808000000     2.698000000
H    -6.309000000     4.455000000     3.311000000
C    -5.245000000     6.127000000     2.756000000
H    -5.763000000     6.696000000     3.524000000
C    -4.251000000     6.691000000     2.034000000
H    -3.875000000     7.697000000     2.200000000
C    -3.509000000     5.959000000     1.155000000
O    -2.600000000     6.659000000     0.342000000
C    -1.428000000     6.149000000    -0.229000000
C    -1.276000000     6.203000000    -1.617000000
H    -1.839000000     6.898000000    -2.234000000
C    -0.317000000     5.498000000    -2.302000000
O    -0.099000000     5.805000000    -3.658000000
C     0.944000000     5.335000000    -4.429000000
C     0.736000000     4.120000000    -5.066000000
H    -0.164000000     3.560000000    -4.827000000
C     2.126000000     5.988000000    -4.608000000
H     2.368000000     6.934000000    -4.130000000
C     3.129000000     5.419000000    -5.399000000
H     4.156000000     5.771000000    -5.438000000
C     2.905000000     4.164000000    -6.003000000
H     3.741000000     3.647000000    -6.467000000
C     1.696000000     3.577000000    -5.933000000
O     1.515000000     2.280000000    -6.470000000
C     1.830000000     1.072000000    -5.859000000
C     1.634000000    -0.085000000    -6.601000000
H     1.362000000     0.003000000    -7.650000000
C     1.893000000    -1.348000000    -6.037000000
O     1.425000000    -2.466000000    -6.610000000
C     1.010000000    -3.624000000    -5.922000000
C     1.745000000    -4.852000000    -6.046000000
H     2.582000000    -4.916000000    -6.736000000
C     1.275000000    -5.955000000    -5.389000000
H     1.724000000    -6.940000000    -5.488000000
C     0.063000000    -5.960000000    -4.691000000
H    -0.354000000    -6.807000000    -4.152000000
C    -0.547000000    -4.710000000    -4.524000000
C    -0.075000000    -3.511000000    -5.062000000
H    -0.510000000    -2.526000000    -4.914000000
C    -0.031000000     0.699000000    -1.274000000
H     0.485000000     1.321000000    -2.001000000
C     0.739000000     0.315000000    -0.189000000
H     1.746000000     0.701000000    -0.055000000
C     0.174000000    -0.443000000     0.764000000
H     0.765000000    -0.803000000     1.657000000
C    -1.117000000    -0.875000000     0.609000000
H    -1.542000000    -1.515000000     1.378000000
C    -1.948000000    -0.456000000    -0.459000000
H    -2.996000000    -0.736000000    -0.522000000
C    -1.378000000     0.326000000    -1.510000000
C    -2.213000000     0.751000000    -2.715000000
O    -3.427000000     0.527000000    -2.832000000
O    -1.685000000     1.393000000    -3.572000000
O    -4.717000000    -1.693000000    -2.170000000
H    -4.673000000    -2.230000000    -2.962000000
H    -4.211000000    -0.909000000    -2.384000000
O    -2.120000000     1.285000000    -8.580000000
H    -1.816000000     0.511000000    -9.055000000
H    -2.155000000     1.006000000    -7.665000000
O     0.256000000     2.380000000    -9.290000000
H    -0.453000000     1.776000000    -9.066000000
H    -0.135000000     3.249000000    -9.208000000
O    -5.536000000    -1.323000000    -5.249000000
H    -6.258000000    -1.326000000    -4.621000000
H    -5.265000000    -0.406000000    -5.298000000
O    -1.492000000     0.418000000    -6.039000000
H    -1.382000000     0.826000000    -5.181000000
H    -0.643000000     0.018000000    -6.226000000
O    -3.153000000    -1.633000000    -6.808000000
H    -2.661000000    -0.829000000    -6.638000000
H    -3.822000000    -1.653000000    -6.124000000
O    -4.391000000    -4.616000000    -6.285000000
H    -5.274000000    -4.380000000    -6.570000000
H    -3.943000000    -3.778000000    -6.174000000
O    -4.752000000     2.281000000    -7.540000000
H    -3.925000000     1.974000000    -7.912000000
H    -4.711000000     2.021000000    -6.619000000
O    -4.450000000     5.468000000    -7.745000000
H    -4.659000000     4.539000000    -7.849000000
H    -3.585000000     5.474000000    -7.335000000
O    -7.247000000    -1.445000000    -3.259000000
H    -6.478000000    -1.297000000    -2.708000000
H    -7.987000000    -1.173000000    -2.716000000
O    -6.044000000     2.637000000    -3.547000000
H    -6.993000000     2.563000000    -3.454000000
H    -5.700000000     2.434000000    -2.677000000
O    -8.950000000    -1.216000000     0.214000000
H    -8.036000000    -0.934000000     0.202000000
H    -9.316000000    -0.807000000     0.998000000
O    -4.517000000     6.588000000    -3.362000000
H    -4.115000000     5.728000000    -3.241000000
H    -3.784000000     7.169000000    -3.563000000
O    -4.412000000     1.047000000    -5.202000000
H    -4.943000000     1.756000000    -4.841000000
H    -3.884000000     0.742000000    -4.464000000
O    -2.906000000     3.872000000    -3.789000000
H    -2.283000000     3.213000000    -3.483000000
H    -3.640000000     3.366000000    -4.137000000
O    -2.330000000     5.608000000    -6.180000000
H    -1.787000000     5.389000000    -5.424000000
H    -2.421000000     6.560000000    -6.143000000
O    -0.224000000     4.860000000    -8.189000000
H    -1.046000000     4.628000000    -7.756000000
H     0.433000000     4.811000000    -7.495000000
O    -5.054000000     1.814000000    -1.291000000
H    -4.358000000     1.521000000    -1.880000000
H    -4.592000000     2.242000000    -0.569000000
O    -6.482000000    -0.528000000    -0.366000000
H    -6.259000000     0.368000000    -0.616000000
H    -5.680000000    -1.027000000    -0.520000000
