215
-1466.12857
C    -3.652000000     2.208000000     2.417000000
H    -2.981000000     3.060000000     2.491000000
C    -3.325000000     0.950000000     2.889000000
C    -4.212000000    -0.106000000     2.762000000
H    -4.029000000    -1.111000000     3.136000000
C    -1.941000000     0.659000000     3.465000000
O    -1.457000000     1.721000000     4.290000000
H    -1.274000000     0.537000000     2.599000000
O    -1.899000000    -0.490000000     4.263000000
C    -0.869000000    -1.384000000     4.144000000
C    -1.093000000    -2.557000000     3.444000000
H    -2.129000000    -2.762000000     3.190000000
C    -0.045000000    -3.470000000     3.282000000
O    -0.265000000    -4.519000000     2.450000000
C     1.240000000    -3.170000000     3.706000000
C     2.396000000    -4.065000000     3.337000000
H     3.252000000    -4.050000000     4.015000000
C     2.902000000    -3.673000000     1.929000000
C     3.846000000    -2.676000000     1.866000000
H     4.379000000    -2.323000000     2.746000000
H     2.048000000    -5.100000000     3.339000000
C     1.483000000    -2.038000000     4.430000000
H     2.457000000    -1.781000000     4.840000000
C     0.397000000    -1.111000000     4.696000000
C     0.670000000     0.129000000     5.461000000
H     1.492000000    -0.083000000     6.149000000
H    -0.217000000     0.315000000     6.071000000
C     0.877000000     1.358000000     4.638000000
C     2.180000000     1.637000000     4.252000000
H     2.979000000     0.989000000     4.604000000
C    -0.160000000     2.076000000     4.021000000
C     0.100000000     3.145000000     3.273000000
H    -0.745000000     3.599000000     2.762000000
C     1.406000000     3.424000000     2.864000000
O     1.480000000     4.334000000     1.819000000
C     1.794000000     3.774000000     0.547000000
C     0.855000000     4.351000000    -0.491000000
C     1.033000000     4.065000000    -1.866000000
H     1.761000000     3.364000000    -2.266000000
C    -0.267000000     5.037000000    -0.055000000
H    -0.677000000     4.973000000     0.949000000
O     3.195000000     3.962000000     0.183000000
H     1.585000000     2.694000000     0.555000000
C     2.453000000     2.674000000     3.380000000
C     3.951000000     2.950000000     2.859000000
H     4.610000000     2.524000000     3.618000000
H     4.165000000     4.019000000     2.804000000
C     4.284000000     2.245000000     1.570000000
C     4.795000000     0.914000000     1.674000000
H     4.933000000     0.379000000     2.610000000
C     3.962000000     2.819000000     0.317000000
C     4.157000000     2.038000000    -0.803000000
H     3.946000000     2.307000000    -1.835000000
C     4.651000000     0.747000000    -0.720000000
O     4.770000000     0.000000000    -1.874000000
C     3.859000000    -1.107000000    -2.202000000
C     3.419000000    -1.061000000    -3.638000000
C     3.456000000     0.145000000    -4.372000000
H     3.800000000     1.013000000    -3.815000000
C     2.795000000    -2.162000000    -4.182000000
H     2.658000000    -3.090000000    -3.632000000
O     4.462000000    -2.356000000    -1.668000000
H     2.958000000    -0.865000000    -1.618000000
C     4.961000000     0.135000000     0.479000000
C     5.594000000    -1.268000000     0.564000000
H     6.292000000    -1.389000000     1.395000000
H     6.232000000    -1.474000000    -0.298000000
C     4.404000000    -2.262000000     0.684000000
C     3.918000000    -2.829000000    -0.483000000
C     2.925000000    -3.795000000    -0.475000000
H     2.389000000    -4.209000000    -1.326000000
C     2.381000000    -4.169000000     0.759000000
O     1.228000000    -4.988000000     0.758000000
C     0.024000000    -4.231000000     1.058000000
H     0.316000000    -3.171000000     1.016000000
C    -1.163000000    -4.288000000     0.098000000
C    -2.433000000    -4.613000000     0.646000000
H    -2.521000000    -4.816000000     1.710000000
C    -1.023000000    -4.071000000    -1.260000000
H    -0.055000000    -3.812000000    -1.683000000
C    -2.167000000    -3.927000000    -2.009000000
O    -2.010000000    -3.603000000    -3.333000000
C    -3.450000000    -4.153000000    -1.482000000
H    -4.345000000    -4.044000000    -2.089000000
C    -3.552000000    -4.527000000    -0.151000000
O    -4.780000000    -4.851000000     0.264000000
C    -5.397000000    -4.263000000     1.344000000
C    -5.505000000    -2.857000000     1.392000000
H    -5.008000000    -2.174000000     0.709000000
C    -6.107000000    -5.077000000     2.228000000
H    -6.106000000    -6.163000000     2.185000000
C    -6.854000000    -4.484000000     3.223000000
H    -7.266000000    -5.103000000     4.016000000
C    -7.091000000    -3.087000000     3.235000000
H    -7.693000000    -2.584000000     3.988000000
C    -6.364000000    -2.242000000     2.328000000
O    -6.463000000    -0.897000000     2.362000000
C    -5.497000000     0.108000000     2.281000000
C    -5.808000000     1.362000000     1.848000000
H    -6.840000000     1.484000000     1.528000000
C    -4.900000000     2.413000000     1.842000000
O    -5.405000000     3.666000000     1.526000000
C    -4.695000000     4.819000000     1.503000000
C    -3.585000000     4.967000000     0.642000000
H    -3.191000000     4.096000000     0.124000000
C    -5.220000000     5.843000000     2.243000000
H    -6.076000000     5.693000000     2.896000000
C    -4.693000000     7.121000000     2.002000000
H    -5.214000000     7.976000000     2.428000000
C    -3.627000000     7.303000000     1.069000000
H    -3.171000000     8.249000000     0.787000000
C    -3.078000000     6.207000000     0.427000000
O    -2.190000000     6.486000000    -0.579000000
C    -1.098000000     5.650000000    -1.001000000
C    -0.825000000     5.508000000    -2.386000000
H    -1.365000000     6.028000000    -3.172000000
C     0.238000000     4.699000000    -2.785000000
O     0.329000000     4.573000000    -4.155000000
C     1.401000000     4.205000000    -4.802000000
C     1.697000000     2.891000000    -5.136000000
H     0.989000000     2.094000000    -4.922000000
C     2.389000000     5.211000000    -4.990000000
H     2.226000000     6.216000000    -4.610000000
C     3.643000000     4.890000000    -5.567000000
H     4.357000000     5.654000000    -5.862000000
C     3.889000000     3.641000000    -6.147000000
H     4.781000000     3.358000000    -6.700000000
C     2.910000000     2.662000000    -5.849000000
O     3.039000000     1.318000000    -6.403000000
C     3.000000000     0.155000000    -5.681000000
C     2.386000000    -0.929000000    -6.275000000
H     2.015000000    -0.881000000    -7.296000000
C     2.274000000    -2.079000000    -5.513000000
O     1.813000000    -3.239000000    -6.101000000
C     0.793000000    -3.983000000    -5.589000000
C     0.591000000    -5.297000000    -5.876000000
H     1.296000000    -5.791000000    -6.538000000
C    -0.405000000    -6.136000000    -5.413000000
H    -0.401000000    -7.178000000    -5.723000000
C    -1.239000000    -5.593000000    -4.445000000
H    -2.012000000    -6.214000000    -4.001000000
C    -1.121000000    -4.206000000    -4.148000000
C    -0.133000000    -3.415000000    -4.606000000
H    -0.173000000    -2.345000000    -4.418000000
C    -0.266000000     0.666000000    -2.232000000
H     0.022000000     1.117000000    -3.178000000
C     0.644000000     0.394000000    -1.210000000
H     1.682000000     0.712000000    -1.279000000
C     0.277000000    -0.277000000    -0.067000000
H     1.065000000    -0.443000000     0.651000000
C    -0.982000000    -0.753000000     0.024000000
H    -1.268000000    -1.416000000     0.837000000
C    -1.938000000    -0.447000000    -0.930000000
H    -2.942000000    -0.855000000    -0.856000000
C    -1.584000000     0.272000000    -2.069000000
C    -2.574000000     0.506000000    -3.238000000
O    -3.720000000     0.756000000    -3.007000000
O    -2.038000000     0.814000000    -4.291000000
O    -5.000000000    -3.106000000    -5.253000000
H    -4.246000000    -2.613000000    -4.929000000
H    -5.593000000    -2.438000000    -5.596000000
O    -5.506000000     1.997000000    -4.652000000
H    -4.842000000     1.561000000    -4.119000000
H    -6.241000000     2.134000000    -4.054000000
O     0.468000000     2.779000000    -8.637000000
H     1.297000000     3.251000000    -8.558000000
H     0.183000000     2.642000000    -7.733000000
O    -1.690000000    -2.522000000    -7.647000000
H    -2.141000000    -3.365000000    -7.608000000
H    -0.852000000    -2.679000000    -7.212000000
O    -7.493000000     3.644000000    -0.946000000
H    -7.770000000     3.807000000    -1.848000000
H    -6.540000000     3.733000000    -0.969000000
O    -1.087000000     1.774000000    -6.398000000
H    -1.645000000     1.173000000    -6.890000000
H    -1.210000000     1.521000000    -5.483000000
O    -8.223000000     2.562000000    -3.729000000
H    -8.238000000     1.606000000    -3.694000000
H    -8.847000000     2.836000000    -3.056000000
O    -2.918000000     6.505000000    -5.463000000
H    -2.166000000     7.060000000    -5.671000000
H    -2.804000000     5.732000000    -6.015000000
O    -5.817000000     4.639000000    -5.473000000
H    -5.624000000     3.717000000    -5.304000000
H    -5.403000000     5.108000000    -4.749000000
O    -7.207000000    -2.920000000    -2.189000000
H    -6.541000000    -2.354000000    -1.799000000
H    -8.036000000    -2.585000000    -1.846000000
O    -4.072000000     6.416000000    -3.011000000
H    -3.324000000     6.794000000    -2.549000000
H    -3.745000000     6.238000000    -3.892000000
O    -3.457000000    -0.295000000    -6.494000000
H    -3.229000000    -0.221000000    -5.567000000
H    -2.991000000    -1.075000000    -6.794000000
O    -2.764000000     3.499000000    -3.946000000
H    -2.804000000     2.543000000    -3.956000000
H    -1.902000000     3.707000000    -4.304000000
O    -6.747000000    -0.516000000    -5.906000000
H    -6.230000000     0.271000000    -5.734000000
H    -7.479000000    -0.462000000    -5.291000000
O    -4.400000000     2.121000000    -7.073000000
H    -4.074000000     1.224000000    -6.998000000
H    -4.865000000     2.276000000    -6.251000000
O    -4.902000000     3.528000000    -2.051000000
H    -4.180000000     2.926000000    -1.867000000
H    -4.492000000     4.259000000    -2.513000000
O    -7.823000000     0.892000000    -0.781000000
H    -8.074000000     1.808000000    -0.904000000
H    -8.643000000     0.444000000    -0.576000000
O    -2.480000000     4.449000000    -7.288000000
H    -1.689000000     4.186000000    -6.818000000
H    -3.011000000     3.654000000    -7.327000000
O    -5.719000000    -0.719000000    -1.378000000
H    -5.018000000    -0.210000000    -1.786000000
H    -6.354000000    -0.062000000    -1.089000000
