215
-1454.14455
C    -2.332000000     1.127000000     3.159000000
H    -1.482000000     1.754000000     2.906000000
C    -2.169000000    -0.142000000     3.730000000
C    -3.307000000    -0.926000000     4.073000000
H    -3.255000000    -1.903000000     4.546000000
C    -0.819000000    -0.810000000     3.884000000
O     0.094000000    -0.065000000     4.709000000
H    -0.408000000    -1.029000000     2.888000000
O    -0.896000000    -2.086000000     4.437000000
C    -0.251000000    -3.057000000     3.773000000
C    -0.986000000    -3.643000000     2.776000000
H    -2.070000000    -3.564000000     2.776000000
C    -0.339000000    -4.404000000     1.819000000
O    -1.123000000    -4.816000000     0.800000000
C     1.029000000    -4.584000000     1.838000000
C     1.630000000    -5.352000000     0.706000000
H     2.515000000    -5.897000000     1.041000000
C     1.951000000    -4.518000000    -0.582000000
C     3.232000000    -3.875000000    -0.660000000
H     4.023000000    -4.137000000     0.038000000
H     0.959000000    -6.136000000     0.349000000
C     1.811000000    -3.828000000     2.789000000
H     2.894000000    -3.808000000     2.700000000
C     1.161000000    -3.091000000     3.794000000
C     2.062000000    -2.325000000     4.742000000
H     3.015000000    -2.763000000     5.046000000
H     1.539000000    -2.339000000     5.701000000
C     2.311000000    -0.892000000     4.294000000
C     3.585000000    -0.572000000     3.782000000
H     4.361000000    -1.333000000     3.747000000
C     1.322000000     0.099000000     4.261000000
C     1.596000000     1.343000000     3.720000000
H     0.803000000     2.080000000     3.810000000
C     2.902000000     1.649000000     3.240000000
O     3.102000000     2.949000000     2.769000000
C     2.881000000     2.999000000     1.339000000
C     2.227000000     4.321000000     0.986000000
C     2.515000000     4.856000000    -0.235000000
H     3.367000000     4.564000000    -0.844000000
C     1.207000000     4.797000000     1.784000000
H     1.011000000     4.265000000     2.712000000
O     4.146000000     2.820000000     0.550000000
H     2.102000000     2.285000000     1.034000000
C     3.844000000     0.639000000     3.099000000
C     5.171000000     0.825000000     2.308000000
H     5.971000000     0.176000000     2.670000000
H     5.522000000     1.827000000     2.564000000
C     4.899000000     0.554000000     0.832000000
C     5.132000000    -0.720000000     0.188000000
H     5.605000000    -1.504000000     0.773000000
C     4.428000000     1.616000000     0.028000000
C     4.177000000     1.425000000    -1.260000000
H     3.867000000     2.279000000    -1.857000000
C     4.336000000     0.192000000    -1.922000000
O     3.855000000     0.054000000    -3.165000000
C     2.504000000    -0.438000000    -3.325000000
C     1.689000000     0.478000000    -4.225000000
C     2.279000000     1.653000000    -4.749000000
H     3.295000000     1.906000000    -4.456000000
C     0.360000000     0.173000000    -4.637000000
H    -0.052000000    -0.780000000    -4.316000000
O     2.561000000    -1.856000000    -3.685000000
H     2.040000000    -0.395000000    -2.329000000
C     4.832000000    -0.866000000    -1.133000000
C     4.828000000    -2.273000000    -1.704000000
H     5.602000000    -2.886000000    -1.238000000
H     4.970000000    -2.192000000    -2.784000000
C     3.483000000    -2.977000000    -1.710000000
C     2.453000000    -2.780000000    -2.669000000
C     1.292000000    -3.501000000    -2.648000000
H     0.567000000    -3.376000000    -3.448000000
C     1.013000000    -4.367000000    -1.625000000
O    -0.290000000    -4.867000000    -1.476000000
C    -1.030000000    -4.124000000    -0.465000000
H    -0.625000000    -3.127000000    -0.235000000
C    -2.535000000    -3.786000000    -0.836000000
C    -3.611000000    -4.153000000    -0.085000000
H    -3.561000000    -4.749000000     0.823000000
C    -2.750000000    -2.985000000    -1.963000000
H    -1.904000000    -2.567000000    -2.504000000
C    -4.058000000    -2.666000000    -2.394000000
O    -4.373000000    -2.064000000    -3.526000000
C    -5.128000000    -2.935000000    -1.577000000
H    -6.124000000    -2.572000000    -1.819000000
C    -4.879000000    -3.697000000    -0.414000000
O    -5.984000000    -4.072000000     0.295000000
C    -6.039000000    -3.806000000     1.681000000
C    -5.620000000    -2.584000000     2.162000000
H    -5.121000000    -1.882000000     1.499000000
C    -6.835000000    -4.707000000     2.473000000
H    -7.170000000    -5.659000000     2.068000000
C    -7.129000000    -4.396000000     3.799000000
H    -7.723000000    -5.021000000     4.460000000
C    -6.670000000    -3.196000000     4.333000000
H    -6.970000000    -2.975000000     5.354000000
C    -5.987000000    -2.306000000     3.511000000
O    -5.647000000    -1.159000000     4.149000000
C    -4.553000000    -0.442000000     3.844000000
C    -4.719000000     0.891000000     3.367000000
H    -5.739000000     1.205000000     3.162000000
C    -3.590000000     1.615000000     2.911000000
O    -3.672000000     2.806000000     2.242000000
C    -3.153000000     3.963000000     2.795000000
C    -2.135000000     4.686000000     2.132000000
H    -1.797000000     4.451000000     1.126000000
C    -3.483000000     4.321000000     4.036000000
H    -4.163000000     3.795000000     4.700000000
C    -2.908000000     5.436000000     4.650000000
H    -3.225000000     5.786000000     5.629000000
C    -1.932000000     6.199000000     4.009000000
H    -1.453000000     7.081000000     4.428000000
C    -1.558000000     5.784000000     2.739000000
O    -0.560000000     6.501000000     2.098000000
C     0.395000000     5.840000000     1.313000000
C     0.720000000     6.415000000     0.089000000
H     0.066000000     7.238000000    -0.187000000
C     1.722000000     5.855000000    -0.737000000
O     2.081000000     6.441000000    -1.963000000
C     2.843000000     5.930000000    -2.993000000
C     2.151000000     5.032000000    -3.812000000
H     1.174000000     4.662000000    -3.514000000
C     4.133000000     6.307000000    -3.326000000
H     4.730000000     7.018000000    -2.760000000
C     4.678000000     5.899000000    -4.568000000
H     5.665000000     6.218000000    -4.893000000
C     3.912000000     5.176000000    -5.458000000
H     4.277000000     4.863000000    -6.433000000
C     2.672000000     4.666000000    -5.082000000
O     2.011000000     3.803000000    -5.957000000
C     1.548000000     2.526000000    -5.569000000
C     0.311000000     2.166000000    -5.996000000
H    -0.217000000     2.789000000    -6.713000000
C    -0.329000000     0.978000000    -5.578000000
O    -1.499000000     0.568000000    -6.177000000
C    -2.076000000    -0.668000000    -5.916000000
C    -1.730000000    -1.781000000    -6.646000000
H    -1.104000000    -1.765000000    -7.534000000
C    -2.128000000    -3.033000000    -6.239000000
H    -1.728000000    -3.923000000    -6.719000000
C    -3.111000000    -3.156000000    -5.248000000
H    -3.516000000    -4.154000000    -5.100000000
C    -3.533000000    -2.035000000    -4.581000000
C    -2.960000000    -0.825000000    -4.853000000
H    -3.176000000     0.063000000    -4.264000000
C    -0.854000000     1.988000000    -1.741000000
H    -0.696000000     2.784000000    -2.464000000
C     0.318000000     1.368000000    -1.289000000
H     1.327000000     1.624000000    -1.603000000
C     0.171000000     0.249000000    -0.475000000
H     1.025000000    -0.424000000    -0.155000000
C    -1.164000000    -0.088000000    -0.045000000
H    -1.297000000    -0.914000000     0.649000000
C    -2.281000000     0.603000000    -0.488000000
H    -3.245000000     0.182000000    -0.214000000
C    -2.144000000     1.637000000    -1.405000000
C    -3.315000000     2.365000000    -2.096000000
O    -4.444000000     2.046000000    -1.831000000
O    -3.145000000     3.237000000    -2.979000000
O    -7.827000000     5.906000000    -1.101000000
H    -7.890000000     6.861000000    -1.127000000
H    -6.891000000     5.726000000    -1.194000000
O    -5.963000000     1.922000000    -4.126000000
H    -5.202000000     2.033000000    -3.556000000
H    -6.713000000     1.954000000    -3.532000000
O    -2.744000000     8.340000000    -3.084000000
H    -2.346000000     7.470000000    -3.090000000
H    -2.445000000     8.735000000    -2.266000000
O    -6.601000000    -1.625000000    -5.732000000
H    -6.718000000    -0.841000000    -6.268000000
H    -6.586000000    -1.301000000    -4.832000000
O    -4.137000000    -0.823000000    -8.710000000
H    -4.021000000    -0.165000000    -8.025000000
H    -3.748000000    -0.429000000    -9.490000000
O    -8.271000000     0.639000000    -0.356000000
H    -8.495000000     1.244000000    -1.064000000
H    -7.449000000     0.979000000    -0.002000000
O    -5.476000000     4.897000000    -6.083000000
H    -4.642000000     4.652000000    -5.684000000
H    -5.767000000     4.106000000    -6.536000000
O    -7.572000000     4.431000000     1.357000000
H    -7.204000000     3.643000000     0.959000000
H    -7.877000000     4.954000000     0.616000000
O    -1.793000000     5.839000000    -3.219000000
H    -2.301000000     5.031000000    -3.140000000
H    -0.923000000     5.549000000    -3.493000000
O    -3.347000000     2.619000000    -8.290000000
H    -3.020000000     3.347000000    -7.761000000
H    -3.857000000     2.088000000    -7.678000000
O    -2.394000000     7.492000000    -5.790000000
H    -2.454000000     8.411000000    -5.532000000
H    -2.666000000     7.006000000    -5.011000000
O    -5.326000000     4.800000000    -1.908000000
H    -4.502000000     5.030000000    -2.337000000
H    -5.319000000     3.843000000    -1.873000000
O    -3.071000000     4.369000000    -5.524000000
H    -2.980000000     3.784000000    -4.772000000
H    -2.204000000     4.762000000    -5.628000000
O    -8.719000000     1.764000000    -2.830000000
H    -8.979000000     1.409000000    -3.680000000
H    -9.082000000     2.649000000    -2.819000000
O    -5.361000000     1.185000000    -6.667000000
H    -6.213000000     1.420000000    -7.035000000
H    -5.339000000     1.622000000    -5.816000000
O    -0.664000000     5.333000000    -6.005000000
H    -1.229000000     6.103000000    -5.945000000
H    -0.114000000     5.499000000    -6.771000000
O    -6.538000000     6.611000000    -4.252000000
H    -6.118000000     6.165000000    -4.988000000
H    -6.508000000     5.975000000    -3.538000000
O    -3.548000000     7.821000000     0.538000000
H    -4.446000000     8.092000000     0.731000000
H    -3.480000000     6.938000000     0.900000000
O    -6.151000000     2.297000000     0.127000000
H    -5.559000000     2.272000000    -0.625000000
H    -5.571000000     2.260000000     0.888000000
