215
-1442.43220
C    -2.495000000     2.364000000     2.265000000
H    -1.533000000     2.871000000     2.267000000
C    -2.640000000     1.258000000     3.149000000
C    -3.956000000     0.737000000     3.239000000
H    -4.195000000     0.076000000     4.068000000
C    -1.353000000     0.557000000     3.747000000
O    -0.466000000     1.330000000     4.547000000
H    -0.817000000     0.194000000     2.858000000
O    -1.786000000    -0.615000000     4.518000000
C    -1.298000000    -1.839000000     4.229000000
C    -2.013000000    -2.682000000     3.376000000
H    -2.997000000    -2.388000000     3.021000000
C    -1.426000000    -3.753000000     2.801000000
O    -2.184000000    -4.358000000     1.824000000
C    -0.074000000    -4.045000000     3.008000000
C     0.590000000    -5.128000000     2.268000000
H     1.307000000    -5.546000000     2.978000000
C     1.196000000    -4.671000000     0.928000000
C     2.513000000    -4.231000000     0.886000000
H     3.177000000    -4.444000000     1.720000000
H    -0.099000000    -5.931000000     1.998000000
C     0.735000000    -3.211000000     3.814000000
H     1.777000000    -3.482000000     3.966000000
C     0.107000000    -2.103000000     4.451000000
C     0.964000000    -1.248000000     5.339000000
H     1.731000000    -1.814000000     5.872000000
H     0.427000000    -0.867000000     6.210000000
C     1.660000000    -0.013000000     4.716000000
C     2.986000000    -0.070000000     4.296000000
H     3.504000000    -1.003000000     4.501000000
C     0.907000000     1.155000000     4.361000000
C     1.483000000     2.203000000     3.605000000
H     0.857000000     2.959000000     3.139000000
C     2.820000000     2.140000000     3.259000000
O     3.245000000     3.133000000     2.472000000
C     3.241000000     2.759000000     1.048000000
C     2.854000000     3.986000000     0.278000000
C     3.483000000     4.313000000    -0.954000000
H     4.314000000     3.675000000    -1.246000000
C     1.824000000     4.835000000     0.767000000
H     1.272000000     4.583000000     1.669000000
O     4.495000000     2.352000000     0.679000000
H     2.524000000     1.946000000     0.863000000
C     3.543000000     0.974000000     3.547000000
C     4.959000000     0.726000000     2.963000000
H     5.541000000     0.124000000     3.664000000
H     5.492000000     1.678000000     2.997000000
C     4.795000000     0.169000000     1.510000000
C     4.832000000    -1.212000000     1.240000000
H     4.737000000    -1.807000000     2.145000000
C     4.724000000     1.011000000     0.425000000
C     4.597000000     0.554000000    -0.873000000
H     4.558000000     1.249000000    -1.708000000
C     4.532000000    -0.796000000    -1.109000000
O     4.127000000    -1.034000000    -2.385000000
C     2.759000000    -1.386000000    -2.534000000
C     2.115000000    -0.724000000    -3.789000000
C     2.716000000     0.453000000    -4.336000000
H     3.627000000     0.902000000    -3.948000000
C     1.051000000    -1.320000000    -4.367000000
H     0.574000000    -2.247000000    -4.059000000
O     2.622000000    -2.896000000    -2.527000000
H     2.133000000    -0.873000000    -1.789000000
C     4.626000000    -1.751000000    -0.041000000
C     4.514000000    -3.240000000    -0.320000000
H     5.050000000    -3.807000000     0.444000000
H     4.901000000    -3.465000000    -1.316000000
C     3.042000000    -3.673000000    -0.268000000
C     2.191000000    -3.449000000    -1.358000000
C     0.889000000    -3.902000000    -1.274000000
H     0.213000000    -3.683000000    -2.097000000
C     0.367000000    -4.494000000    -0.128000000
O    -1.023000000    -4.882000000    -0.161000000
C    -1.895000000    -3.914000000     0.494000000
H    -1.454000000    -2.908000000     0.550000000
C    -3.126000000    -3.579000000    -0.301000000
C    -4.326000000    -3.444000000     0.402000000
H    -4.427000000    -3.491000000     1.483000000
C    -3.153000000    -3.595000000    -1.705000000
H    -2.205000000    -3.695000000    -2.227000000
C    -4.324000000    -3.403000000    -2.442000000
O    -4.373000000    -3.316000000    -3.832000000
C    -5.516000000    -3.181000000    -1.750000000
H    -6.406000000    -2.866000000    -2.289000000
C    -5.511000000    -3.259000000    -0.395000000
O    -6.679000000    -3.048000000     0.208000000
C    -6.775000000    -2.358000000     1.376000000
C    -6.521000000    -1.030000000     1.480000000
H    -6.201000000    -0.490000000     0.593000000
C    -7.253000000    -3.082000000     2.499000000
H    -7.558000000    -4.118000000     2.368000000
C    -7.242000000    -2.544000000     3.768000000
H    -7.701000000    -3.067000000     4.604000000
C    -6.921000000    -1.146000000     3.817000000
H    -6.922000000    -0.687000000     4.802000000
C    -6.612000000    -0.407000000     2.667000000
O    -6.338000000     0.954000000     2.759000000
C    -5.027000000     1.420000000     2.574000000
C    -4.784000000     2.504000000     1.693000000
H    -5.620000000     2.916000000     1.134000000
C    -3.492000000     2.940000000     1.519000000
O    -3.353000000     4.027000000     0.741000000
C    -2.661000000     5.149000000     1.194000000
C    -1.393000000     5.338000000     0.762000000
H    -0.982000000     4.638000000     0.039000000
C    -3.285000000     5.912000000     2.159000000
H    -4.266000000     5.617000000     2.522000000
C    -2.556000000     7.041000000     2.656000000
H    -3.013000000     7.720000000     3.372000000
C    -1.303000000     7.362000000     2.092000000
H    -0.844000000     8.341000000     2.204000000
C    -0.670000000     6.508000000     1.147000000
O     0.536000000     6.828000000     0.598000000
C     1.474000000     5.969000000     0.061000000
C     2.011000000     6.165000000    -1.242000000
H     1.652000000     6.920000000    -1.937000000
C     3.023000000     5.409000000    -1.721000000
O     3.501000000     5.677000000    -3.013000000
C     4.007000000     4.693000000    -3.858000000
C     3.104000000     3.772000000    -4.489000000
H     2.087000000     3.605000000    -4.142000000
C     5.328000000     4.721000000    -4.210000000
H     5.939000000     5.565000000    -3.901000000
C     5.798000000     3.854000000    -5.204000000
H     6.823000000     3.964000000    -5.549000000
C     4.898000000     3.022000000    -5.957000000
H     5.160000000     2.282000000    -6.708000000
C     3.608000000     2.958000000    -5.495000000
O     2.700000000     2.114000000    -6.160000000
C     2.188000000     1.028000000    -5.491000000
C     1.054000000     0.495000000    -6.002000000
H     0.632000000     0.961000000    -6.889000000
C     0.540000000    -0.693000000    -5.517000000
O    -0.611000000    -1.130000000    -6.090000000
C    -1.294000000    -2.318000000    -5.717000000
C    -0.789000000    -3.608000000    -6.064000000
H     0.169000000    -3.726000000    -6.563000000
C    -1.347000000    -4.739000000    -5.511000000
H    -0.791000000    -5.656000000    -5.691000000
C    -2.575000000    -4.675000000    -4.855000000
H    -3.108000000    -5.556000000    -4.507000000
C    -3.158000000    -3.418000000    -4.600000000
C    -2.477000000    -2.214000000    -4.924000000
H    -2.869000000    -1.233000000    -4.668000000
C    -1.307000000     1.017000000    -2.022000000
H    -1.057000000     1.626000000    -2.887000000
C    -0.350000000     0.605000000    -1.119000000
H     0.693000000     0.801000000    -1.357000000
C    -0.707000000    -0.203000000    -0.074000000
H    -0.031000000    -0.690000000     0.580000000
C    -2.076000000    -0.385000000     0.210000000
H    -2.302000000    -0.999000000     1.078000000
C    -3.084000000     0.117000000    -0.668000000
H    -4.119000000    -0.065000000    -0.392000000
C    -2.722000000     0.866000000    -1.785000000
C    -3.832000000     1.572000000    -2.494000000
O    -4.939000000     1.085000000    -2.430000000
O    -3.558000000     2.341000000    -3.448000000
O    -5.722000000    -0.670000000    -4.293000000
H    -5.363000000    -0.056000000    -3.653000000
H    -6.027000000    -1.411000000    -3.769000000
O    -8.632000000     1.934000000     0.748000000
H    -7.973000000     1.494000000     0.211000000
H    -9.358000000     2.101000000     0.148000000
O    -4.424000000     4.763000000    -3.109000000
H    -4.286000000     3.936000000    -3.571000000
H    -3.560000000     5.176000000    -3.093000000
O    -6.164000000     2.793000000    -6.513000000
H    -7.046000000     3.085000000    -6.746000000
H    -5.964000000     2.106000000    -7.149000000
O    -2.894000000     1.681000000    -6.015000000
H    -2.514000000     2.558000000    -6.073000000
H    -3.214000000     1.618000000    -5.116000000
O    -6.582000000     6.477000000    -3.597000000
H    -5.874000000     5.883000000    -3.348000000
H    -6.171000000     7.102000000    -4.195000000
O    -3.725000000     0.377000000    -8.293000000
H    -3.382000000     0.542000000    -7.415000000
H    -3.551000000     1.186000000    -8.774000000
O    -4.999000000     6.011000000    -0.667000000
H    -5.024000000     5.455000000    -1.445000000
H    -4.556000000     5.479000000    -0.006000000
O    -9.767000000     2.171000000    -2.003000000
H    -9.579000000     2.907000000    -2.586000000
H   -10.665000000     1.917000000    -2.220000000
O    -1.665000000     4.552000000    -6.969000000
H    -1.443000000     4.110000000    -6.150000000
H    -0.984000000     4.275000000    -7.583000000
O    -8.629000000     4.798000000    -3.622000000
H    -8.066000000     4.031000000    -3.726000000
H    -8.061000000     5.542000000    -3.824000000
O    -8.749000000     0.959000000    -5.122000000
H    -8.487000000     0.599000000    -5.969000000
H    -7.979000000     1.440000000    -4.818000000
O    -1.806000000     5.874000000    -3.238000000
H    -1.122000000     6.384000000    -3.671000000
H    -2.341000000     6.526000000    -2.784000000
O    -6.882000000     2.620000000    -3.936000000
H    -6.174000000     2.103000000    -3.553000000
H    -6.602000000     2.779000000    -4.838000000
O    -0.910000000     3.650000000    -4.596000000
H    -0.597000000     3.098000000    -3.879000000
H    -1.454000000     4.312000000    -4.169000000
O    -5.526000000    -2.496000000    -6.463000000
H    -5.768000000    -3.386000000    -6.205000000
H    -5.559000000    -1.993000000    -5.649000000
O    -7.486000000     0.315000000    -1.786000000
H    -6.649000000     0.520000000    -2.203000000
H    -8.030000000     1.085000000    -1.950000000
O    -9.351000000    -1.450000000    -0.889000000
H    -8.486000000    -1.382000000    -1.291000000
H    -9.963000000    -1.330000000    -1.615000000
O    -3.615000000     7.864000000    -1.854000000
H    -3.699000000     8.705000000    -1.405000000
H    -4.227000000     7.287000000    -1.398000000
