215
-1469.68753
C    -2.485000000     2.021000000     2.826000000
H    -1.513000000     2.506000000     2.851000000
C    -2.625000000     0.774000000     3.437000000
C    -3.825000000     0.086000000     3.381000000
H    -3.999000000    -0.890000000     3.829000000
C    -1.316000000     0.065000000     3.832000000
O    -0.349000000     0.882000000     4.606000000
H    -0.850000000    -0.210000000     2.874000000
O    -1.478000000    -1.103000000     4.568000000
C    -0.884000000    -2.180000000     4.020000000
C    -1.644000000    -2.957000000     3.172000000
H    -2.713000000    -2.774000000     3.096000000
C    -1.029000000    -4.022000000     2.501000000
O    -1.771000000    -4.751000000     1.624000000
C     0.323000000    -4.316000000     2.688000000
C     1.018000000    -5.424000000     1.896000000
H     1.866000000    -5.891000000     2.402000000
C     1.459000000    -4.831000000     0.579000000
C     2.767000000    -4.414000000     0.366000000
H     3.499000000    -4.669000000     1.128000000
H     0.279000000    -6.224000000     1.811000000
C     1.038000000    -3.511000000     3.576000000
H     2.031000000    -3.871000000     3.832000000
C     0.451000000    -2.437000000     4.279000000
C     1.252000000    -1.556000000     5.172000000
H     2.131000000    -2.015000000     5.629000000
H     0.615000000    -1.335000000     6.032000000
C     1.804000000    -0.356000000     4.388000000
C     3.118000000    -0.315000000     3.984000000
H     3.783000000    -1.163000000     4.125000000
C     0.972000000     0.811000000     4.213000000
C     1.545000000     1.994000000     3.670000000
H     0.953000000     2.882000000     3.463000000
C     2.797000000     1.929000000     3.078000000
O     3.197000000     3.044000000     2.386000000
C     3.217000000     2.855000000     0.902000000
C     2.861000000     4.107000000     0.129000000
C     3.558000000     4.585000000    -1.016000000
H     4.527000000     4.167000000    -1.275000000
C     1.748000000     4.786000000     0.521000000
H     1.254000000     4.584000000     1.468000000
O     4.568000000     2.451000000     0.475000000
H     2.410000000     2.255000000     0.457000000
C     3.645000000     0.817000000     3.252000000
C     5.041000000     0.691000000     2.614000000
H     5.695000000     0.030000000     3.187000000
H     5.458000000     1.694000000     2.732000000
C     4.923000000     0.147000000     1.181000000
C     4.755000000    -1.236000000     0.882000000
H     4.870000000    -1.997000000     1.649000000
C     4.691000000     1.120000000     0.203000000
C     4.413000000     0.737000000    -1.066000000
H     4.267000000     1.443000000    -1.880000000
C     4.419000000    -0.604000000    -1.343000000
O     3.955000000    -0.872000000    -2.566000000
C     2.540000000    -1.155000000    -2.656000000
C     1.822000000    -0.204000000    -3.626000000
C     2.469000000     0.758000000    -4.385000000
H     3.542000000     0.879000000    -4.256000000
C     0.482000000    -0.431000000    -3.789000000
H     0.009000000    -1.259000000    -3.267000000
O     2.354000000    -2.541000000    -2.840000000
H     2.053000000    -0.826000000    -1.726000000
C     4.571000000    -1.618000000    -0.405000000
C     4.558000000    -3.105000000    -0.849000000
H     5.211000000    -3.699000000    -0.207000000
H     4.902000000    -3.220000000    -1.880000000
C     3.141000000    -3.697000000    -0.794000000
C     2.173000000    -3.456000000    -1.814000000
C     0.844000000    -3.860000000    -1.656000000
H     0.071000000    -3.400000000    -2.267000000
C     0.558000000    -4.616000000    -0.530000000
O    -0.759000000    -5.020000000    -0.483000000
C    -1.695000000    -4.213000000     0.258000000
H    -1.343000000    -3.178000000     0.382000000
C    -3.046000000    -4.137000000    -0.481000000
C    -4.232000000    -4.245000000     0.263000000
H    -4.154000000    -4.392000000     1.337000000
C    -3.171000000    -3.839000000    -1.870000000
H    -2.283000000    -3.769000000    -2.493000000
C    -4.441000000    -3.540000000    -2.416000000
O    -4.675000000    -3.162000000    -3.741000000
C    -5.618000000    -3.591000000    -1.651000000
H    -6.591000000    -3.449000000    -2.115000000
C    -5.494000000    -4.079000000    -0.332000000
O    -6.550000000    -4.083000000     0.481000000
C    -6.440000000    -3.388000000     1.691000000
C    -6.098000000    -2.034000000     1.651000000
H    -5.861000000    -1.441000000     0.771000000
C    -6.867000000    -3.984000000     2.889000000
H    -7.085000000    -5.048000000     2.869000000
C    -7.033000000    -3.246000000     4.030000000
H    -7.410000000    -3.782000000     4.897000000
C    -6.805000000    -1.875000000     3.989000000
H    -7.044000000    -1.238000000     4.836000000
C    -6.369000000    -1.261000000     2.826000000
O    -6.172000000     0.109000000     2.838000000
C    -4.919000000     0.689000000     2.820000000
C    -4.809000000     1.966000000     2.223000000
H    -5.674000000     2.494000000     1.829000000
C    -3.587000000     2.594000000     2.167000000
O    -3.398000000     3.854000000     1.628000000
C    -2.454000000     4.797000000     2.019000000
C    -1.478000000     5.184000000     1.128000000
H    -1.346000000     4.673000000     0.177000000
C    -2.651000000     5.565000000     3.160000000
H    -3.297000000     5.161000000     3.935000000
C    -1.767000000     6.605000000     3.418000000
H    -1.717000000     7.141000000     4.362000000
C    -0.797000000     6.966000000     2.434000000
H    -0.011000000     7.670000000     2.696000000
C    -0.711000000     6.289000000     1.261000000
O     0.111000000     6.676000000     0.266000000
C     1.283000000     5.968000000    -0.111000000
C     1.971000000     6.390000000    -1.234000000
H     1.546000000     7.263000000    -1.722000000
C     3.127000000     5.680000000    -1.727000000
O     3.819000000     6.048000000    -2.844000000
C     3.989000000     5.242000000    -3.959000000
C     3.122000000     4.185000000    -4.280000000
H     2.284000000     4.018000000    -3.608000000
C     4.959000000     5.658000000    -4.880000000
H     5.533000000     6.524000000    -4.559000000
C     5.166000000     4.989000000    -6.043000000
H     5.957000000     5.255000000    -6.741000000
C     4.302000000     3.981000000    -6.336000000
H     4.390000000     3.579000000    -7.342000000
C     3.253000000     3.634000000    -5.528000000
O     2.421000000     2.579000000    -5.938000000
C     1.751000000     1.650000000    -5.174000000
C     0.399000000     1.565000000    -5.243000000
H    -0.218000000     2.239000000    -5.832000000
C    -0.267000000     0.472000000    -4.611000000
O    -1.590000000     0.215000000    -4.732000000
C    -2.044000000    -1.065000000    -5.030000000
C    -1.370000000    -1.980000000    -5.850000000
H    -0.464000000    -1.650000000    -6.353000000
C    -1.781000000    -3.327000000    -5.854000000
H    -1.136000000    -4.011000000    -6.400000000
C    -2.973000000    -3.750000000    -5.218000000
H    -3.158000000    -4.818000000    -5.136000000
C    -3.625000000    -2.760000000    -4.509000000
C    -3.223000000    -1.472000000    -4.398000000
H    -3.687000000    -0.831000000    -3.653000000
C    -0.403000000     1.358000000    -1.149000000
H     0.084000000     2.032000000    -1.849000000
C     0.429000000     0.490000000    -0.360000000
H     1.506000000     0.496000000    -0.512000000
C    -0.111000000    -0.448000000     0.471000000
H     0.565000000    -1.109000000     0.949000000
C    -1.482000000    -0.599000000     0.544000000
H    -1.883000000    -1.401000000     1.158000000
C    -2.310000000     0.251000000    -0.202000000
H    -3.369000000     0.241000000     0.043000000
C    -1.760000000     1.223000000    -1.094000000
C    -2.762000000     2.034000000    -1.906000000
O    -3.855000000     1.604000000    -2.089000000
O    -2.356000000     2.996000000    -2.576000000
O    -7.768000000     4.480000000    -2.801000000
H    -8.103000000     5.086000000    -3.463000000
H    -6.816000000     4.535000000    -2.887000000
O    -5.358000000     1.587000000    -4.298000000
H    -4.833000000     1.554000000    -3.499000000
H    -6.262000000     1.502000000    -3.995000000
O    -1.699000000     1.223000000    -7.828000000
H    -2.016000000     1.614000000    -7.013000000
H    -1.764000000     1.928000000    -8.473000000
O    -0.815000000     7.474000000    -2.606000000
H    -1.533000000     6.876000000    -2.813000000
H    -0.046000000     6.909000000    -2.533000000
O    -4.443000000    -1.114000000    -7.292000000
H    -3.800000000    -1.313000000    -6.612000000
H    -4.490000000    -0.158000000    -7.305000000
O    -6.827000000     5.115000000     1.203000000
H    -5.887000000     5.194000000     1.043000000
H    -7.135000000     6.018000000     1.271000000
O    -7.739000000    -1.018000000    -2.478000000
H    -7.173000000    -0.427000000    -1.982000000
H    -8.118000000    -0.468000000    -3.163000000
O    -6.263000000     4.074000000    -5.841000000
H    -6.643000000     3.342000000    -6.326000000
H    -5.889000000     3.674000000    -5.056000000
O    -8.348000000     2.005000000    -3.941000000
H    -8.023000000     2.899000000    -3.838000000
H    -9.259000000     2.047000000    -3.649000000
O    -0.105000000     4.725000000    -2.983000000
H    -0.716000000     4.037000000    -2.718000000
H    -0.290000000     4.863000000    -3.913000000
O    -4.541000000     1.663000000    -6.959000000
H    -5.451000000     1.790000000    -6.692000000
H    -4.028000000     1.958000000    -6.206000000
O    -3.617000000     6.799000000    -2.872000000
H    -4.257000000     6.428000000    -2.263000000
H    -3.822000000     7.733000000    -2.894000000
O    -4.922000000     4.223000000    -3.012000000
H    -4.193000000     4.841000000    -3.072000000
H    -4.508000000     3.382000000    -2.818000000
O    -2.677000000     3.057000000    -5.452000000
H    -2.723000000     2.923000000    -4.506000000
H    -2.552000000     4.001000000    -5.554000000
O    -3.026000000     5.945000000    -5.608000000
H    -2.930000000     6.892000000    -5.708000000
H    -3.679000000     5.842000000    -4.915000000
O    -6.821000000    -1.398000000    -5.786000000
H    -6.131000000    -1.223000000    -6.427000000
H    -6.506000000    -0.993000000    -4.979000000
O    -0.180000000     5.285000000    -5.800000000
H     0.203000000     4.737000000    -6.485000000
H    -1.080000000     5.435000000    -6.089000000
O    -4.721000000     7.042000000     0.979000000
H    -3.927000000     6.517000000     1.078000000
H    -4.942000000     7.313000000     1.870000000
O    -6.400000000     0.836000000    -1.488000000
H    -5.500000000     1.145000000    -1.589000000
H    -6.806000000     1.470000000    -0.896000000
