215
-1449.56330
C    -2.546000000     2.074000000     2.707000000
H    -1.573000000     2.552000000     2.633000000
C    -2.709000000     0.991000000     3.560000000
C    -3.968000000     0.419000000     3.827000000
H    -4.149000000    -0.457000000     4.444000000
C    -1.411000000     0.251000000     3.894000000
O    -0.480000000     1.059000000     4.736000000
H    -0.923000000     0.018000000     2.936000000
O    -1.681000000    -0.983000000     4.707000000
C    -1.133000000    -2.124000000     4.201000000
C    -1.818000000    -2.814000000     3.218000000
H    -2.852000000    -2.523000000     3.051000000
C    -1.195000000    -3.837000000     2.436000000
O    -1.822000000    -4.592000000     1.491000000
C     0.194000000    -4.107000000     2.688000000
C     0.951000000    -5.173000000     2.008000000
H     1.812000000    -5.524000000     2.582000000
C     1.461000000    -4.669000000     0.643000000
C     2.722000000    -4.272000000     0.545000000
H     3.440000000    -4.447000000     1.342000000
H     0.366000000    -6.087000000     1.883000000
C     0.901000000    -3.264000000     3.547000000
H     1.953000000    -3.391000000     3.788000000
C     0.234000000    -2.288000000     4.298000000
C     1.047000000    -1.404000000     5.238000000
H     1.841000000    -1.990000000     5.705000000
H     0.469000000    -1.077000000     6.105000000
C     1.631000000    -0.201000000     4.583000000
C     2.998000000    -0.188000000     4.161000000
H     3.588000000    -1.089000000     4.309000000
C     0.900000000     1.001000000     4.526000000
C     1.466000000     2.117000000     3.854000000
H     0.919000000     3.042000000     3.691000000
C     2.735000000     2.014000000     3.328000000
O     3.110000000     3.024000000     2.389000000
C     3.080000000     2.881000000     0.966000000
C     2.599000000     4.116000000     0.324000000
C     3.024000000     4.434000000    -0.994000000
H     3.676000000     3.690000000    -1.443000000
C     1.618000000     4.979000000     0.900000000
H     1.133000000     4.766000000     1.849000000
O     4.376000000     2.433000000     0.594000000
H     2.400000000     2.045000000     0.744000000
C     3.553000000     0.882000000     3.492000000
C     4.902000000     0.650000000     2.854000000
H     5.574000000    -0.038000000     3.371000000
H     5.434000000     1.601000000     2.917000000
C     4.729000000     0.124000000     1.386000000
C     4.594000000    -1.191000000     1.035000000
H     4.601000000    -1.954000000     1.810000000
C     4.571000000     1.118000000     0.328000000
C     4.661000000     0.686000000    -0.977000000
H     4.589000000     1.316000000    -1.860000000
C     4.669000000    -0.686000000    -1.256000000
O     4.376000000    -1.090000000    -2.546000000
C     3.006000000    -1.467000000    -2.805000000
C     2.342000000    -0.587000000    -3.889000000
C     2.947000000     0.447000000    -4.621000000
H     3.963000000     0.637000000    -4.284000000
C     0.979000000    -0.775000000    -4.138000000
H     0.387000000    -1.581000000    -3.713000000
O     2.854000000    -2.952000000    -2.912000000
H     2.438000000    -1.155000000    -1.916000000
C     4.594000000    -1.643000000    -0.287000000
C     4.663000000    -3.144000000    -0.583000000
H     5.295000000    -3.612000000     0.175000000
H     5.148000000    -3.401000000    -1.526000000
C     3.186000000    -3.641000000    -0.579000000
C     2.418000000    -3.546000000    -1.741000000
C     1.181000000    -4.103000000    -1.706000000
H     0.615000000    -4.086000000    -2.634000000
C     0.625000000    -4.661000000    -0.495000000
O    -0.678000000    -5.062000000    -0.610000000
C    -1.542000000    -4.159000000     0.129000000
H    -1.123000000    -3.142000000     0.171000000
C    -2.853000000    -3.948000000    -0.613000000
C    -4.057000000    -3.888000000     0.168000000
H    -3.986000000    -3.988000000     1.248000000
C    -2.878000000    -3.885000000    -1.990000000
H    -2.028000000    -4.108000000    -2.630000000
C    -4.140000000    -3.609000000    -2.542000000
O    -4.292000000    -3.671000000    -3.929000000
C    -5.290000000    -3.487000000    -1.768000000
H    -6.225000000    -3.211000000    -2.250000000
C    -5.281000000    -3.562000000    -0.415000000
O    -6.474000000    -3.262000000     0.272000000
C    -6.474000000    -2.776000000     1.595000000
C    -6.349000000    -1.386000000     1.818000000
H    -6.219000000    -0.722000000     0.968000000
C    -6.793000000    -3.567000000     2.733000000
H    -6.982000000    -4.634000000     2.649000000
C    -7.010000000    -3.021000000     3.979000000
H    -7.105000000    -3.744000000     4.785000000
C    -6.911000000    -1.664000000     4.124000000
H    -7.091000000    -1.236000000     5.107000000
C    -6.601000000    -0.833000000     3.049000000
O    -6.312000000     0.539000000     3.324000000
C    -5.004000000     1.021000000     3.165000000
C    -4.823000000     2.041000000     2.214000000
H    -5.709000000     2.422000000     1.712000000
C    -3.566000000     2.553000000     1.961000000
O    -3.335000000     3.557000000     1.144000000
C    -2.792000000     4.834000000     1.604000000
C    -1.603000000     5.329000000     1.014000000
H    -1.206000000     4.783000000     0.162000000
C    -3.271000000     5.580000000     2.693000000
H    -4.196000000     5.233000000     3.146000000
C    -2.689000000     6.775000000     3.089000000
H    -3.232000000     7.344000000     3.840000000
C    -1.474000000     7.275000000     2.519000000
H    -1.085000000     8.254000000     2.785000000
C    -0.967000000     6.526000000     1.451000000
O     0.179000000     6.964000000     0.786000000
C     1.148000000     6.121000000     0.209000000
C     1.698000000     6.388000000    -1.050000000
H     1.304000000     7.258000000    -1.570000000
C     2.614000000     5.579000000    -1.614000000
O     2.885000000     5.867000000    -2.967000000
C     3.569000000     5.064000000    -3.727000000
C     2.991000000     3.974000000    -4.435000000
H     1.942000000     3.784000000    -4.221000000
C     4.839000000     5.447000000    -4.033000000
H     5.253000000     6.329000000    -3.551000000
C     5.592000000     4.674000000    -4.913000000
H     6.642000000     4.903000000    -5.076000000
C     4.970000000     3.755000000    -5.734000000
H     5.606000000     3.236000000    -6.447000000
C     3.686000000     3.293000000    -5.437000000
O     2.900000000     2.363000000    -6.173000000
C     2.286000000     1.225000000    -5.559000000
C     0.928000000     0.961000000    -5.839000000
H     0.406000000     1.541000000    -6.596000000
C     0.321000000    -0.085000000    -5.116000000
O    -1.049000000    -0.329000000    -5.331000000
C    -1.590000000    -1.580000000    -5.423000000
C    -1.311000000    -2.353000000    -6.494000000
H    -0.538000000    -2.030000000    -7.187000000
C    -1.985000000    -3.641000000    -6.740000000
H    -1.622000000    -4.259000000    -7.557000000
C    -2.951000000    -4.050000000    -5.832000000
H    -3.290000000    -5.082000000    -5.829000000
C    -3.321000000    -3.193000000    -4.775000000
C    -2.717000000    -1.952000000    -4.629000000
H    -3.050000000    -1.235000000    -3.883000000
C    -0.320000000     1.172000000    -1.575000000
H     0.216000000     1.818000000    -2.266000000
C     0.391000000     0.442000000    -0.630000000
H     1.473000000     0.445000000    -0.734000000
C    -0.246000000    -0.267000000     0.349000000
H     0.326000000    -0.893000000     1.108000000
C    -1.618000000    -0.340000000     0.312000000
H    -2.165000000    -0.988000000     0.991000000
C    -2.402000000     0.344000000    -0.626000000
H    -3.469000000     0.152000000    -0.702000000
C    -1.761000000     1.077000000    -1.641000000
C    -2.517000000     1.821000000    -2.710000000
O    -3.694000000     1.609000000    -2.907000000
O    -1.993000000     2.763000000    -3.266000000
O    -5.263000000     0.353000000    -4.485000000
H    -4.522000000     0.836000000    -4.121000000
H    -5.788000000     0.109000000    -3.723000000
O    -2.965000000     6.059000000    -3.107000000
H    -3.659000000     5.417000000    -3.256000000
H    -2.155000000     5.552000000    -3.155000000
O    -6.235000000     4.524000000    -7.215000000
H    -7.002000000     4.566000000    -7.786000000
H    -6.300000000     3.670000000    -6.789000000
O    -3.631000000     0.774000000    -7.138000000
H    -3.070000000     1.533000000    -6.981000000
H    -3.989000000     0.559000000    -6.276000000
O    -6.201000000     1.735000000    -6.768000000
H    -6.163000000     1.128000000    -6.029000000
H    -5.399000000     1.561000000    -7.262000000
O    -5.240000000     5.739000000    -0.618000000
H    -4.487000000     5.530000000    -1.171000000
H    -4.983000000     6.538000000    -0.157000000
O    -7.163000000    -0.574000000    -2.511000000
H    -6.692000000    -0.114000000    -1.816000000
H    -7.593000000     0.120000000    -3.010000000
O    -3.703000000     4.458000000    -8.760000000
H    -3.126000000     4.010000000    -8.142000000
H    -4.494000000     4.646000000    -8.256000000
O    -7.332000000     3.641000000    -0.996000000
H    -6.712000000     4.349000000    -0.824000000
H    -7.612000000     3.782000000    -1.901000000
O    -8.688000000     0.996000000    -4.014000000
H    -8.622000000     1.946000000    -4.112000000
H    -9.598000000     0.795000000    -4.233000000
O    -0.387000000     4.872000000    -2.992000000
H    -0.794000000     4.028000000    -3.185000000
H     0.338000000     4.660000000    -2.404000000
O    -1.421000000     5.897000000    -7.241000000
H    -0.721000000     6.107000000    -6.622000000
H    -2.087000000     6.567000000    -7.086000000
O    -4.999000000     3.977000000    -3.351000000
H    -4.618000000     3.104000000    -3.440000000
H    -5.909000000     3.818000000    -3.103000000
O    -2.361000000     2.930000000    -6.017000000
H    -2.109000000     2.582000000    -5.162000000
H    -2.327000000     3.881000000    -5.908000000
O    -6.395000000    -1.881000000    -5.962000000
H    -6.984000000    -1.438000000    -5.351000000
H    -5.531000000    -1.521000000    -5.764000000
O     0.318000000     6.374000000    -5.182000000
H     1.228000000     6.216000000    -5.435000000
H     0.218000000     5.911000000    -4.350000000
O    -5.747000000     1.284000000    -1.205000000
H    -4.829000000     1.368000000    -1.463000000
H    -6.033000000     2.183000000    -1.044000000
O    -3.050000000     8.760000000    -4.059000000
H    -3.174000000     9.323000000    -3.295000000
H    -2.923000000     7.885000000    -3.694000000
O    -2.765000000     7.982000000    -1.077000000
H    -1.929000000     8.335000000    -1.382000000
H    -2.856000000     7.149000000    -1.540000000
