215
-1429.96879
C    -2.045000000     1.345000000     3.301000000
H    -1.056000000     1.631000000     2.950000000
C    -2.118000000     0.148000000     4.075000000
C    -3.448000000    -0.236000000     4.481000000
H    -3.602000000    -1.198000000     4.963000000
C    -0.918000000    -0.733000000     4.130000000
O     0.210000000    -0.268000000     4.800000000
H    -0.641000000    -0.974000000     3.093000000
O    -1.138000000    -2.031000000     4.668000000
C    -0.796000000    -3.077000000     3.833000000
C    -1.650000000    -3.477000000     2.854000000
H    -2.679000000    -3.135000000     2.777000000
C    -1.230000000    -4.396000000     1.864000000
O    -2.142000000    -4.712000000     0.849000000
C     0.123000000    -4.778000000     1.792000000
C     0.661000000    -5.540000000     0.579000000
H     1.564000000    -6.059000000     0.907000000
C     0.988000000    -4.626000000    -0.619000000
C     2.294000000    -4.208000000    -0.760000000
H     3.050000000    -4.599000000    -0.084000000
H    -0.095000000    -6.207000000     0.160000000
C     0.960000000    -4.295000000     2.746000000
H     2.000000000    -4.555000000     2.568000000
C     0.539000000    -3.482000000     3.768000000
C     1.585000000    -2.794000000     4.672000000
H     2.401000000    -3.503000000     4.829000000
H     1.156000000    -2.622000000     5.662000000
C     2.126000000    -1.576000000     4.050000000
C     3.376000000    -1.572000000     3.461000000
H     3.950000000    -2.495000000     3.494000000
C     1.404000000    -0.405000000     4.078000000
C     1.930000000     0.752000000     3.654000000
H     1.455000000     1.716000000     3.814000000
C     3.098000000     0.781000000     2.929000000
O     3.628000000     1.963000000     2.604000000
C     3.599000000     2.212000000     1.212000000
C     3.159000000     3.600000000     0.864000000
C     3.615000000     4.215000000    -0.332000000
H     4.447000000     3.684000000    -0.788000000
C     2.243000000     4.283000000     1.624000000
H     1.877000000     3.877000000     2.564000000
O     4.842000000     1.923000000     0.646000000
H     2.872000000     1.578000000     0.683000000
C     3.821000000    -0.398000000     2.788000000
C     5.247000000    -0.412000000     2.204000000
H     5.812000000    -1.278000000     2.555000000
H     5.734000000     0.489000000     2.582000000
C     5.128000000    -0.471000000     0.713000000
C     4.897000000    -1.678000000     0.092000000
H     4.988000000    -2.655000000     0.560000000
C     4.802000000     0.718000000     0.030000000
C     4.638000000     0.691000000    -1.340000000
H     4.338000000     1.591000000    -1.871000000
C     4.376000000    -0.533000000    -1.986000000
O     3.816000000    -0.616000000    -3.223000000
C     2.373000000    -0.657000000    -3.350000000
C     1.783000000     0.327000000    -4.323000000
C     2.375000000     1.590000000    -4.551000000
H     3.255000000     1.839000000    -3.964000000
C     0.502000000     0.033000000    -4.957000000
H     0.026000000    -0.940000000    -4.871000000
O     1.927000000    -2.015000000    -3.644000000
H     1.970000000    -0.390000000    -2.362000000
C     4.533000000    -1.694000000    -1.264000000
C     4.220000000    -2.986000000    -1.881000000
H     4.805000000    -3.762000000    -1.385000000
H     4.494000000    -2.960000000    -2.938000000
C     2.700000000    -3.307000000    -1.728000000
C     1.681000000    -2.876000000    -2.612000000
C     0.359000000    -3.313000000    -2.526000000
H    -0.356000000    -2.912000000    -3.239000000
C    -0.037000000    -4.181000000    -1.539000000
O    -1.425000000    -4.484000000    -1.406000000
C    -2.125000000    -3.844000000    -0.303000000
H    -1.485000000    -2.978000000    -0.080000000
C    -3.447000000    -3.223000000    -0.734000000
C    -4.532000000    -3.250000000     0.127000000
H    -4.518000000    -3.730000000     1.103000000
C    -3.504000000    -2.522000000    -1.932000000
H    -2.557000000    -2.473000000    -2.462000000
C    -4.681000000    -2.031000000    -2.396000000
O    -4.712000000    -1.439000000    -3.662000000
C    -5.752000000    -1.997000000    -1.493000000
H    -6.655000000    -1.518000000    -1.862000000
C    -5.648000000    -2.519000000    -0.197000000
O    -6.769000000    -2.434000000     0.561000000
C    -6.857000000    -2.379000000     1.924000000
C    -6.230000000    -1.267000000     2.462000000
H    -5.838000000    -0.495000000     1.805000000
C    -7.476000000    -3.287000000     2.688000000
H    -7.796000000    -4.212000000     2.215000000
C    -7.398000000    -3.202000000     4.070000000
H    -7.785000000    -3.914000000     4.795000000
C    -6.766000000    -2.171000000     4.655000000
H    -6.657000000    -2.030000000     5.727000000
C    -6.319000000    -1.093000000     3.845000000
O    -5.839000000     0.089000000     4.403000000
C    -4.522000000     0.528000000     4.232000000
C    -4.403000000     1.710000000     3.557000000
H    -5.292000000     2.316000000     3.404000000
C    -3.167000000     2.131000000     3.058000000
O    -2.966000000     3.362000000     2.329000000
C    -2.161000000     4.379000000     2.870000000
C    -1.052000000     4.754000000     2.248000000
H    -0.770000000     4.236000000     1.335000000
C    -2.470000000     4.806000000     4.184000000
H    -3.302000000     4.334000000     4.700000000
C    -1.554000000     5.701000000     4.806000000
H    -1.772000000     6.019000000     5.823000000
C    -0.527000000     6.254000000     4.018000000
H     0.057000000     7.083000000     4.410000000
C    -0.225000000     5.768000000     2.772000000
O     0.821000000     6.246000000     1.970000000
C     1.754000000     5.536000000     1.203000000
C     2.232000000     6.202000000     0.060000000
H     1.783000000     7.151000000    -0.222000000
C     3.177000000     5.491000000    -0.699000000
O     3.736000000     6.116000000    -1.735000000
C     3.961000000     5.703000000    -3.034000000
C     3.034000000     4.880000000    -3.704000000
H     2.097000000     4.631000000    -3.213000000
C     5.086000000     6.066000000    -3.741000000
H     5.785000000     6.805000000    -3.358000000
C     5.426000000     5.471000000    -4.910000000
H     6.329000000     5.738000000    -5.452000000
C     4.528000000     4.655000000    -5.537000000
H     4.842000000     4.303000000    -6.516000000
C     3.280000000     4.340000000    -4.950000000
O     2.296000000     3.706000000    -5.657000000
C     1.759000000     2.486000000    -5.436000000
C     0.494000000     2.199000000    -5.934000000
H    -0.054000000     2.970000000    -6.470000000
C    -0.096000000     0.934000000    -5.767000000
O    -1.361000000     0.688000000    -6.312000000
C    -2.089000000    -0.427000000    -5.994000000
C    -2.104000000    -1.500000000    -6.922000000
H    -1.424000000    -1.413000000    -7.765000000
C    -3.013000000    -2.549000000    -6.683000000
H    -3.018000000    -3.369000000    -7.396000000
C    -3.927000000    -2.490000000    -5.672000000
H    -4.676000000    -3.265000000    -5.529000000
C    -3.837000000    -1.507000000    -4.710000000
C    -2.899000000    -0.465000000    -4.859000000
H    -2.793000000     0.294000000    -4.088000000
C    -0.495000000     1.446000000    -1.053000000
H    -0.079000000     2.155000000    -1.764000000
C     0.323000000     0.545000000    -0.373000000
H     1.400000000     0.654000000    -0.471000000
C    -0.213000000    -0.368000000     0.451000000
H     0.344000000    -1.094000000     1.093000000
C    -1.568000000    -0.476000000     0.609000000
H    -2.069000000    -1.212000000     1.232000000
C    -2.437000000     0.386000000    -0.162000000
H    -3.481000000     0.145000000     0.018000000
C    -1.850000000     1.462000000    -0.883000000
C    -2.676000000     2.451000000    -1.681000000
O    -3.866000000     2.219000000    -1.710000000
O    -2.151000000     3.353000000    -2.333000000
O    -4.391000000     5.044000000    -0.083000000
H    -3.663000000     4.666000000    -0.578000000
H    -5.173000000     4.648000000    -0.468000000
O    -5.661000000     1.875000000    -3.707000000
H    -4.996000000     2.148000000    -3.076000000
H    -5.840000000     2.662000000    -4.222000000
O    -0.956000000     8.574000000    -1.011000000
H    -1.317000000     7.693000000    -0.912000000
H    -1.367000000     8.913000000    -1.807000000
O    -6.318000000    -0.277000000    -5.769000000
H    -6.143000000     0.646000000    -5.584000000
H    -6.113000000    -0.729000000    -4.951000000
O    -7.992000000     2.287000000     1.932000000
H    -7.469000000     2.103000000     1.152000000
H    -7.703000000     3.154000000     2.215000000
O    -7.219000000     7.080000000    -0.980000000
H    -6.451000000     7.650000000    -0.946000000
H    -6.893000000     6.262000000    -1.356000000
O    -7.110000000     5.463000000     2.365000000
H    -7.190000000     6.408000000     2.492000000
H    -6.246000000     5.347000000     1.969000000
O    -2.234000000     7.590000000    -6.107000000
H    -1.386000000     7.223000000    -5.853000000
H    -2.239000000     7.541000000    -7.063000000
O    -1.447000000     5.879000000    -1.621000000
H    -1.704000000     4.963000000    -1.731000000
H    -0.702000000     5.991000000    -2.211000000
O    -6.218000000     4.018000000    -1.583000000
H    -5.656000000     3.244000000    -1.536000000
H    -6.884000000     3.792000000    -2.232000000
O    -2.942000000     4.542000000    -4.402000000
H    -2.463000000     4.127000000    -3.684000000
H    -2.363000000     5.242000000    -4.702000000
O    -7.757000000     4.253000000    -4.310000000
H    -6.996000000     4.832000000    -4.368000000
H    -7.750000000     3.766000000    -5.134000000
O    -5.200000000     4.136000000    -5.682000000
H    -4.945000000     3.281000000    -6.030000000
H    -4.465000000     4.396000000    -5.126000000
O     0.008000000     6.009000000    -5.037000000
H     0.520000000     6.731000000    -4.673000000
H     0.575000000     5.629000000    -5.709000000
O    -4.259000000     7.974000000    -1.470000000
H    -3.596000000     8.530000000    -1.879000000
H    -3.829000000     7.124000000    -1.369000000
O    -3.048000000     7.045000000     1.205000000
H    -3.641000000     6.373000000     0.869000000
H    -2.183000000     6.636000000     1.178000000
O    -5.764000000     1.695000000     0.263000000
H    -4.857000000     2.000000000     0.278000000
H    -5.802000000     1.093000000    -0.481000000
O    -4.137000000     1.904000000    -6.971000000
H    -4.476000000     1.524000000    -7.782000000
H    -3.532000000     1.244000000    -6.632000000
O    -7.994000000     0.728000000    -2.855000000
H    -8.634000000     1.076000000    -3.477000000
H    -7.157000000     1.091000000    -3.145000000
