215
-1452.18515
C    -2.343000000     1.119000000     3.706000000
H    -1.301000000     1.408000000     3.592000000
C    -2.546000000    -0.285000000     3.911000000
C    -3.832000000    -0.699000000     4.029000000
H    -4.044000000    -1.744000000     4.237000000
C    -1.350000000    -1.194000000     3.907000000
O    -0.346000000    -0.763000000     4.916000000
H    -1.005000000    -1.104000000     2.866000000
O    -1.667000000    -2.531000000     4.111000000
C    -1.108000000    -3.493000000     3.299000000
C    -1.901000000    -3.935000000     2.250000000
H    -2.922000000    -3.591000000     2.107000000
C    -1.370000000    -4.747000000     1.268000000
O    -2.071000000    -4.832000000     0.044000000
C    -0.025000000    -5.130000000     1.366000000
C     0.582000000    -5.799000000     0.104000000
H     1.304000000    -6.574000000     0.367000000
C     1.162000000    -4.872000000    -0.966000000
C     2.481000000    -4.487000000    -0.890000000
H     3.182000000    -4.713000000    -0.092000000
H    -0.262000000    -6.345000000    -0.324000000
C     0.787000000    -4.635000000     2.441000000
H     1.850000000    -4.847000000     2.350000000
C     0.258000000    -3.799000000     3.423000000
C     1.104000000    -3.218000000     4.558000000
H     1.908000000    -3.934000000     4.741000000
H     0.599000000    -3.163000000     5.525000000
C     1.668000000    -1.874000000     4.224000000
C     2.869000000    -1.773000000     3.442000000
H     3.360000000    -2.684000000     3.109000000
C     0.966000000    -0.677000000     4.416000000
C     1.471000000     0.560000000     4.036000000
H     0.844000000     1.424000000     4.243000000
C     2.750000000     0.647000000     3.495000000
O     3.225000000     1.877000000     3.067000000
C     3.123000000     2.201000000     1.608000000
C     2.534000000     3.571000000     1.343000000
C     2.900000000     4.242000000     0.171000000
H     3.557000000     3.892000000    -0.622000000
C     1.694000000     4.245000000     2.207000000
H     1.472000000     3.862000000     3.200000000
O     4.376000000     2.021000000     1.008000000
H     2.383000000     1.500000000     1.194000000
C     3.500000000    -0.525000000     3.188000000
C     4.931000000    -0.498000000     2.549000000
H     5.401000000    -1.386000000     2.978000000
H     5.597000000     0.275000000     2.938000000
C     4.899000000    -0.461000000     1.045000000
C     4.858000000    -1.662000000     0.364000000
H     4.978000000    -2.614000000     0.875000000
C     4.683000000     0.787000000     0.398000000
C     4.364000000     0.797000000    -0.946000000
H     4.178000000     1.666000000    -1.572000000
C     4.422000000    -0.397000000    -1.677000000
O     4.109000000    -0.369000000    -3.040000000
C     2.725000000    -0.573000000    -3.417000000
C     2.389000000     0.416000000    -4.518000000
C     3.115000000     1.622000000    -4.649000000
H     3.893000000     1.925000000    -3.954000000
C     1.239000000     0.270000000    -5.282000000
H     0.651000000    -0.623000000    -5.087000000
O     2.509000000    -1.957000000    -3.772000000
H     2.148000000    -0.364000000    -2.504000000
C     4.589000000    -1.606000000    -0.984000000
C     4.431000000    -3.022000000    -1.667000000
H     5.068000000    -3.850000000    -1.348000000
H     4.834000000    -2.909000000    -2.676000000
C     3.001000000    -3.530000000    -1.822000000
C     2.091000000    -2.936000000    -2.730000000
C     0.760000000    -3.330000000    -2.825000000
H     0.128000000    -2.840000000    -3.560000000
C     0.288000000    -4.267000000    -1.923000000
O    -1.095000000    -4.388000000    -1.982000000
C    -1.782000000    -3.760000000    -0.889000000
H    -0.998000000    -3.162000000    -0.402000000
C    -3.004000000    -2.921000000    -1.295000000
C    -4.255000000    -3.010000000    -0.720000000
H    -4.409000000    -3.753000000     0.059000000
C    -2.875000000    -2.090000000    -2.461000000
H    -1.908000000    -1.913000000    -2.924000000
C    -3.863000000    -1.268000000    -2.873000000
O    -3.763000000    -0.309000000    -3.847000000
C    -5.057000000    -1.259000000    -2.154000000
H    -5.833000000    -0.528000000    -2.369000000
C    -5.281000000    -2.153000000    -1.113000000
O    -6.537000000    -2.173000000    -0.504000000
C    -6.770000000    -2.228000000     0.826000000
C    -6.341000000    -1.235000000     1.701000000
H    -5.704000000    -0.422000000     1.364000000
C    -7.564000000    -3.337000000     1.275000000
H    -7.956000000    -4.074000000     0.579000000
C    -7.935000000    -3.304000000     2.644000000
H    -8.599000000    -4.109000000     2.948000000
C    -7.549000000    -2.310000000     3.546000000
H    -7.858000000    -2.272000000     4.588000000
C    -6.699000000    -1.265000000     3.050000000
O    -6.218000000    -0.238000000     3.872000000
C    -4.913000000     0.190000000     3.884000000
C    -4.684000000     1.555000000     3.669000000
H    -5.560000000     2.193000000     3.753000000
C    -3.366000000     2.044000000     3.641000000
O    -3.228000000     3.388000000     3.433000000
C    -2.345000000     4.174000000     3.949000000
C    -1.416000000     4.716000000     3.117000000
H    -1.513000000     4.493000000     2.058000000
C    -2.255000000     4.303000000     5.357000000
H    -2.894000000     3.770000000     6.056000000
C    -1.220000000     5.108000000     5.892000000
H    -1.112000000     5.178000000     6.971000000
C    -0.319000000     5.718000000     5.023000000
H     0.519000000     6.299000000     5.398000000
C    -0.462000000     5.540000000     3.658000000
O     0.437000000     6.198000000     2.825000000
C     1.224000000     5.536000000     1.954000000
C     1.398000000     6.071000000     0.650000000
H     0.894000000     7.005000000     0.416000000
C     2.235000000     5.378000000    -0.192000000
O     2.695000000     6.134000000    -1.244000000
C     3.494000000     5.736000000    -2.330000000
C     2.887000000     4.969000000    -3.348000000
H     1.889000000     4.542000000    -3.290000000
C     4.881000000     5.968000000    -2.301000000
H     5.331000000     6.520000000    -1.479000000
C     5.635000000     5.490000000    -3.359000000
H     6.698000000     5.716000000    -3.363000000
C     5.087000000     4.757000000    -4.381000000
H     5.776000000     4.345000000    -5.114000000
C     3.691000000     4.503000000    -4.434000000
O     3.188000000     3.862000000    -5.518000000
C     2.624000000     2.617000000    -5.523000000
C     1.550000000     2.460000000    -6.326000000
H     1.233000000     3.284000000    -6.959000000
C     0.857000000     1.250000000    -6.242000000
O    -0.393000000     1.188000000    -6.916000000
C    -1.386000000     0.262000000    -6.580000000
C    -1.771000000    -0.731000000    -7.411000000
H    -1.240000000    -0.923000000    -8.340000000
C    -2.802000000    -1.638000000    -7.088000000
H    -3.030000000    -2.461000000    -7.760000000
C    -3.412000000    -1.518000000    -5.846000000
H    -4.247000000    -2.157000000    -5.570000000
C    -3.035000000    -0.473000000    -4.979000000
C    -2.013000000     0.421000000    -5.331000000
H    -1.794000000     1.303000000    -4.734000000
C    -0.062000000     1.251000000    -1.241000000
H     0.520000000     1.970000000    -1.812000000
C     0.622000000     0.378000000    -0.399000000
H     1.691000000     0.180000000    -0.414000000
C    -0.106000000    -0.480000000     0.513000000
H     0.377000000    -1.276000000     1.061000000
C    -1.493000000    -0.316000000     0.497000000
H    -2.114000000    -0.937000000     1.138000000
C    -2.089000000     0.672000000    -0.243000000
H    -3.160000000     0.797000000    -0.106000000
C    -1.452000000     1.473000000    -1.185000000
C    -2.107000000     2.540000000    -2.079000000
O    -3.302000000     2.835000000    -1.970000000
O    -1.479000000     3.139000000    -2.879000000
O    -3.272000000     5.138000000    -0.698000000
H    -4.071000000     4.639000000    -0.531000000
H    -2.850000000     4.679000000    -1.424000000
O    -4.414000000     2.724000000    -4.483000000
H    -4.362000000     1.769000000    -4.526000000
H    -3.876000000     2.960000000    -3.728000000
O    -2.814000000     8.540000000    -4.144000000
H    -3.724000000     8.446000000    -4.428000000
H    -2.796000000     9.371000000    -3.670000000
O    -6.717000000     6.527000000    -4.375000000
H    -6.944000000     6.388000000    -5.295000000
H    -5.833000000     6.170000000    -4.289000000
O    -6.440000000     3.463000000     1.834000000
H    -6.214000000     3.164000000     0.954000000
H    -5.813000000     4.162000000     2.019000000
O    -4.084000000     7.589000000     1.059000000
H    -4.274000000     6.806000000     1.576000000
H    -4.337000000     8.317000000     1.627000000
O    -4.893000000     5.557000000     2.849000000
H    -5.436000000     5.984000000     3.511000000
H    -4.068000000     5.371000000     3.298000000
O    -0.158000000     7.524000000    -3.508000000
H    -0.326000000     6.709000000    -3.035000000
H    -1.028000000     7.865000000    -3.714000000
O    -0.489000000     5.364000000    -1.799000000
H    -0.472000000     4.927000000    -0.948000000
H    -0.882000000     4.722000000    -2.390000000
O    -4.111000000     5.770000000    -3.659000000
H    -3.519000000     6.510000000    -3.790000000
H    -3.553000000     4.998000000    -3.753000000
O    -0.903000000     4.653000000    -4.791000000
H    -1.059000000     3.964000000    -4.146000000
H    -1.502000000     4.449000000    -5.509000000
O    -7.074000000     3.027000000    -5.217000000
H    -6.230000000     2.908000000    -4.781000000
H    -7.648000000     3.378000000    -4.537000000
O    -4.965000000     4.565000000    -6.800000000
H    -5.057000000     3.720000000    -6.359000000
H    -4.044000000     4.602000000    -7.057000000
O    -2.427000000     4.731000000    -7.586000000
H    -1.956000000     5.541000000    -7.783000000
H    -2.082000000     4.095000000    -8.213000000
O    -5.232000000     7.518000000    -1.461000000
H    -5.004000000     7.606000000    -0.536000000
H    -4.631000000     6.852000000    -1.794000000
O    -1.731000000     7.694000000    -0.424000000
H    -1.575000000     6.826000000    -0.797000000
H    -2.441000000     7.560000000     0.205000000
O    -5.760000000     3.244000000    -0.800000000
H    -6.178000000     3.758000000    -1.490000000
H    -4.936000000     2.948000000    -1.187000000
O    -8.032000000     4.180000000    -2.825000000
H    -8.943000000     4.468000000    -2.774000000
H    -7.565000000     4.927000000    -3.199000000
O    -8.822000000     1.618000000    -1.823000000
H    -8.266000000     2.294000000    -2.210000000
H    -9.240000000     1.194000000    -2.572000000
