215
-1463.42567
C     4.342000000    -3.170000000    -1.202000000
H     4.046000000    -4.136000000    -0.802000000
C     4.341000000    -2.010000000    -0.447000000
C     4.813000000    -0.863000000    -1.076000000
H     4.751000000     0.068000000    -0.517000000
C     3.781000000    -2.005000000     0.989000000
O     3.534000000    -3.339000000     1.533000000
H     2.765000000    -1.612000000     0.832000000
O     4.449000000    -1.140000000     1.962000000
C     3.692000000    -0.268000000     2.702000000
C     3.580000000     1.042000000     2.308000000
H     4.198000000     1.358000000     1.472000000
C     2.882000000     1.985000000     3.030000000
O     2.710000000     3.309000000     2.589000000
C     2.051000000     1.586000000     4.060000000
C     1.231000000     2.584000000     4.828000000
H     1.137000000     2.245000000     5.862000000
C    -0.197000000     2.551000000     4.165000000
C    -1.243000000     1.809000000     4.674000000
H    -1.122000000     1.126000000     5.510000000
H     1.618000000     3.602000000     4.758000000
C     2.141000000     0.194000000     4.482000000
H     1.482000000    -0.214000000     5.245000000
C     2.976000000    -0.716000000     3.800000000
C     2.983000000    -2.234000000     4.166000000
H     2.661000000    -2.290000000     5.208000000
H     4.000000000    -2.629000000     4.115000000
C     1.998000000    -3.104000000     3.337000000
C     0.696000000    -3.240000000     3.894000000
H     0.454000000    -2.775000000     4.846000000
C     2.313000000    -3.663000000     2.138000000
C     1.347000000    -4.362000000     1.455000000
H     1.500000000    -4.886000000     0.514000000
C     0.026000000    -4.475000000     1.936000000
O    -0.989000000    -5.035000000     1.163000000
C    -1.790000000    -4.018000000     0.475000000
C    -1.980000000    -4.319000000    -1.037000000
C    -3.266000000    -4.217000000    -1.668000000
H    -4.105000000    -3.846000000    -1.084000000
C    -0.885000000    -4.369000000    -1.862000000
H     0.047000000    -4.275000000    -1.310000000
O    -3.117000000    -3.898000000     1.059000000
H    -1.200000000    -3.095000000     0.573000000
C    -0.293000000    -3.930000000     3.198000000
C    -1.709000000    -3.938000000     3.657000000
H    -1.665000000    -3.919000000     4.748000000
H    -2.270000000    -4.842000000     3.413000000
C    -2.565000000    -2.757000000     3.148000000
C    -2.730000000    -1.620000000     3.952000000
H    -2.284000000    -1.590000000     4.943000000
C    -3.208000000    -2.811000000     1.918000000
C    -3.975000000    -1.711000000     1.498000000
H    -4.536000000    -1.786000000     0.570000000
C    -3.953000000    -0.549000000     2.185000000
O    -4.641000000     0.463000000     1.636000000
C    -3.877000000     1.561000000     1.194000000
C    -4.252000000     2.004000000    -0.222000000
C    -4.598000000     1.091000000    -1.228000000
H    -4.432000000     0.028000000    -1.074000000
C    -4.334000000     3.398000000    -0.457000000
H    -4.023000000     4.138000000     0.276000000
O    -3.891000000     2.609000000     2.149000000
H    -2.905000000     1.051000000     1.120000000
C    -3.355000000    -0.479000000     3.451000000
C    -3.416000000     0.724000000     4.423000000
H    -3.163000000     0.412000000     5.439000000
H    -4.453000000     1.058000000     4.339000000
C    -2.493000000     1.811000000     4.012000000
C    -2.725000000     2.669000000     2.914000000
C    -1.642000000     3.384000000     2.469000000
H    -1.696000000     3.985000000     1.565000000
C    -0.425000000     3.429000000     3.088000000
O     0.557000000     4.185000000     2.431000000
C     1.584000000     3.500000000     1.727000000
H     1.306000000     2.560000000     1.228000000
C     2.005000000     4.278000000     0.464000000
C     3.298000000     4.365000000     0.065000000
H     4.085000000     3.849000000     0.609000000
C     1.040000000     4.961000000    -0.244000000
H     0.060000000     4.960000000     0.226000000
C     1.368000000     5.569000000    -1.468000000
O     0.342000000     6.201000000    -2.173000000
C     2.662000000     5.558000000    -1.943000000
H     2.855000000     6.098000000    -2.867000000
C     3.641000000     4.994000000    -1.103000000
O     4.926000000     4.890000000    -1.532000000
C     5.691000000     3.693000000    -1.488000000
C     5.318000000     2.542000000    -2.217000000
H     4.386000000     2.625000000    -2.769000000
C     6.849000000     3.612000000    -0.651000000
H     7.141000000     4.430000000     0.003000000
C     7.654000000     2.454000000    -0.644000000
H     8.620000000     2.490000000    -0.147000000
C     7.249000000     1.366000000    -1.390000000
H     7.810000000     0.436000000    -1.352000000
C     6.100000000     1.412000000    -2.208000000
O     5.695000000     0.320000000    -2.946000000
C     5.204000000    -0.836000000    -2.409000000
C     5.228000000    -2.026000000    -3.138000000
H     5.534000000    -1.989000000    -4.180000000
C     4.799000000    -3.182000000    -2.489000000
O     4.816000000    -4.360000000    -3.264000000
C     3.576000000    -5.047000000    -3.369000000
C     2.395000000    -4.345000000    -3.531000000
H     2.394000000    -3.258000000    -3.526000000
C     3.534000000    -6.421000000    -3.458000000
H     4.496000000    -6.915000000    -3.347000000
C     2.365000000    -7.135000000    -3.603000000
H     2.304000000    -8.216000000    -3.698000000
C     1.175000000    -6.492000000    -3.740000000
H     0.246000000    -7.020000000    -3.941000000
C     1.209000000    -5.068000000    -3.735000000
O     0.053000000    -4.392000000    -4.062000000
C    -0.982000000    -4.560000000    -3.263000000
C    -2.276000000    -4.548000000    -3.875000000
H    -2.390000000    -4.633000000    -4.953000000
C    -3.361000000    -4.214000000    -3.027000000
O    -4.602000000    -4.083000000    -3.628000000
C    -5.333000000    -2.931000000    -3.613000000
C    -4.729000000    -1.674000000    -3.514000000
H    -3.646000000    -1.610000000    -3.444000000
C    -6.713000000    -3.001000000    -3.504000000
H    -7.177000000    -3.983000000    -3.464000000
C    -7.479000000    -1.827000000    -3.471000000
H    -8.563000000    -1.902000000    -3.517000000
C    -6.897000000    -0.532000000    -3.483000000
H    -7.413000000     0.420000000    -3.573000000
C    -5.493000000    -0.470000000    -3.441000000
O    -4.991000000     0.746000000    -3.592000000
C    -4.900000000     1.601000000    -2.467000000
C    -4.626000000     2.970000000    -2.761000000
H    -4.499000000     3.326000000    -3.780000000
C    -4.401000000     3.897000000    -1.728000000
O    -4.294000000     5.234000000    -1.942000000
C    -3.223000000     5.967000000    -1.495000000
C    -3.483000000     7.072000000    -0.792000000
H    -4.498000000     7.309000000    -0.483000000
C    -2.386000000     7.914000000    -0.457000000
H    -2.651000000     8.877000000    -0.029000000
C    -1.052000000     7.585000000    -0.851000000
H    -0.251000000     8.306000000    -0.713000000
C    -0.840000000     6.484000000    -1.640000000
C    -1.911000000     5.614000000    -1.947000000
H    -1.635000000     4.828000000    -2.646000000
C    -1.173000000     0.929000000    -2.201000000
H    -2.142000000     0.763000000    -2.664000000
C    -0.897000000     0.124000000    -1.113000000
H    -1.643000000    -0.550000000    -0.701000000
C     0.443000000     0.181000000    -0.620000000
H     0.630000000    -0.396000000     0.274000000
C     1.416000000     1.072000000    -1.181000000
H     2.429000000     1.150000000    -0.796000000
C     1.082000000     1.886000000    -2.270000000
H     1.786000000     2.631000000    -2.632000000
C    -0.203000000     1.815000000    -2.789000000
C    -0.551000000     2.504000000    -4.080000000
O    -0.036000000     3.591000000    -4.355000000
O    -1.238000000     1.993000000    -4.917000000
O     4.872000000     4.250000000    -6.393000000
H     4.100000000     3.721000000    -6.193000000
H     5.467000000     3.646000000    -6.836000000
O    -2.428000000     6.087000000    -5.609000000
H    -1.509000000     6.226000000    -5.380000000
H    -2.488000000     6.345000000    -6.529000000
O     2.973000000     6.872000000    -5.476000000
H     3.351000000     7.602000000    -4.985000000
H     3.540000000     6.778000000    -6.241000000
O    -3.022000000     4.086000000    -9.140000000
H    -2.407000000     4.372000000    -9.815000000
H    -2.479000000     3.625000000    -8.501000000
O     3.275000000     0.267000000    -7.199000000
H     2.918000000     1.070000000    -6.819000000
H     4.132000000     0.168000000    -6.786000000
O    -4.910000000     7.001000000    -4.335000000
H    -4.911000000     6.530000000    -3.502000000
H    -4.181000000     6.620000000    -4.825000000
O    -3.212000000     0.357000000    -6.097000000
H    -3.466000000     0.980000000    -5.416000000
H    -3.548000000     0.738000000    -6.908000000
O     2.326000000     3.238000000    -6.084000000
H     1.793000000     3.355000000    -5.297000000
H     1.878000000     3.752000000    -6.755000000
O    -1.633000000    -0.161000000    -9.239000000
H    -1.270000000    -0.049000000    -8.360000000
H    -1.172000000    -0.921000000    -9.593000000
O    -3.109000000     3.498000000    -5.849000000
H    -2.454000000     3.001000000    -5.359000000
H    -2.789000000     4.400000000    -5.829000000
O    -0.295000000     0.204000000    -6.688000000
H     0.342000000    -0.269000000    -6.153000000
H    -0.869000000     0.634000000    -6.054000000
O     1.149000000    -0.608000000    -4.282000000
H     1.357000000     0.292000000    -4.028000000
H     0.346000000    -0.812000000    -3.802000000
O     0.789000000     8.873000000    -3.149000000
H     0.040000000     9.233000000    -3.624000000
H     0.616000000     7.933000000    -3.106000000
O    -5.658000000     4.023000000    -6.627000000
H    -5.543000000     3.779000000    -7.546000000
H    -5.006000000     3.503000000    -6.157000000
O    -0.795000000     2.574000000    -7.585000000
H    -1.248000000     2.420000000    -6.756000000
H    -0.272000000     1.783000000    -7.722000000
O     0.218000000     5.904000000    -5.248000000
H     1.153000000     6.102000000    -5.197000000
H     0.103000000     5.140000000    -4.682000000
O     0.772000000     4.721000000    -7.915000000
H     0.240000000     5.318000000    -7.388000000
H     0.187000000     3.990000000    -8.112000000
O    -2.881000000    -2.321000000    -6.941000000
H    -2.921000000    -1.399000000    -6.688000000
H    -3.785000000    -2.549000000    -7.160000000
O    -3.942000000     0.822000000    -8.687000000
H    -3.251000000     0.240000000    -9.002000000
H    -4.168000000     1.358000000    -9.447000000
