215
-1464.56798
C    -2.331000000     1.096000000     4.483000000
H    -1.359000000     1.319000000     4.915000000
C    -2.577000000    -0.073000000     3.857000000
C    -3.808000000    -0.297000000     3.240000000
H    -3.982000000    -1.246000000     2.741000000
C    -1.522000000    -1.080000000     3.721000000
O    -0.513000000    -1.008000000     4.770000000
H    -1.152000000    -0.871000000     2.706000000
O    -2.012000000    -2.406000000     3.682000000
C    -1.416000000    -3.310000000     2.783000000
C    -2.133000000    -3.538000000     1.636000000
H    -3.164000000    -3.227000000     1.491000000
C    -1.637000000    -4.306000000     0.611000000
O    -2.332000000    -4.445000000    -0.548000000
C    -0.296000000    -4.830000000     0.744000000
C     0.293000000    -5.589000000    -0.444000000
H     1.141000000    -6.134000000    -0.025000000
C     0.917000000    -4.547000000    -1.408000000
C     2.319000000    -4.375000000    -1.320000000
H     2.831000000    -4.973000000    -0.571000000
H    -0.437000000    -6.234000000    -0.938000000
C     0.425000000    -4.624000000     1.928000000
H     1.462000000    -4.951000000     1.967000000
C    -0.120000000    -3.879000000     2.999000000
C     0.747000000    -3.636000000     4.226000000
H     1.457000000    -4.450000000     4.385000000
H     0.049000000    -3.569000000     5.063000000
C     1.503000000    -2.252000000     4.167000000
C     2.847000000    -2.101000000     3.640000000
H     3.428000000    -3.017000000     3.557000000
C     0.830000000    -1.032000000     4.394000000
C     1.363000000     0.157000000     4.092000000
H     0.778000000     1.021000000     4.397000000
C     2.681000000     0.270000000     3.690000000
O     2.956000000     1.594000000     3.394000000
C     2.923000000     1.961000000     2.040000000
C     2.383000000     3.393000000     1.829000000
C     2.907000000     4.182000000     0.793000000
H     3.606000000     3.728000000     0.095000000
C     1.363000000     3.847000000     2.598000000
H     0.964000000     3.166000000     3.345000000
O     4.205000000     1.774000000     1.330000000
H     2.228000000     1.290000000     1.513000000
C     3.439000000    -0.850000000     3.424000000
C     4.827000000    -0.777000000     2.803000000
H     5.550000000    -1.561000000     3.036000000
H     5.282000000     0.119000000     3.229000000
C     4.795000000    -0.615000000     1.287000000
C     4.646000000    -1.780000000     0.551000000
H     4.819000000    -2.740000000     1.030000000
C     4.568000000     0.636000000     0.676000000
C     4.352000000     0.741000000    -0.679000000
H     4.114000000     1.707000000    -1.118000000
C     4.351000000    -0.422000000    -1.435000000
O     4.192000000    -0.266000000    -2.804000000
C     2.939000000    -0.456000000    -3.227000000
C     2.527000000     0.550000000    -4.320000000
C     2.767000000     1.890000000    -4.017000000
H     3.459000000     2.096000000    -3.205000000
C     1.670000000     0.234000000    -5.360000000
H     1.460000000    -0.820000000    -5.527000000
O     2.850000000    -1.773000000    -3.709000000
H     2.243000000    -0.392000000    -2.377000000
C     4.512000000    -1.709000000    -0.842000000
C     4.385000000    -3.027000000    -1.710000000
H     4.821000000    -3.852000000    -1.142000000
H     4.971000000    -2.870000000    -2.618000000
C     2.927000000    -3.352000000    -2.050000000
C     2.193000000    -2.700000000    -2.998000000
C     0.808000000    -2.961000000    -3.161000000
H     0.210000000    -2.502000000    -3.944000000
C     0.143000000    -3.952000000    -2.397000000
O    -1.254000000    -4.034000000    -2.535000000
C    -2.035000000    -3.387000000    -1.503000000
H    -1.479000000    -2.595000000    -0.980000000
C    -3.205000000    -2.660000000    -2.150000000
C    -4.448000000    -2.701000000    -1.542000000
H    -4.608000000    -3.144000000    -0.562000000
C    -3.009000000    -2.071000000    -3.394000000
H    -2.013000000    -2.019000000    -3.828000000
C    -4.050000000    -1.318000000    -3.920000000
O    -4.029000000    -0.929000000    -5.268000000
C    -5.268000000    -1.208000000    -3.215000000
H    -6.147000000    -0.609000000    -3.438000000
C    -5.457000000    -1.892000000    -2.042000000
O    -6.692000000    -1.832000000    -1.387000000
C    -6.797000000    -1.762000000     0.031000000
C    -6.170000000    -0.756000000     0.686000000
H    -5.500000000    -0.075000000     0.167000000
C    -7.549000000    -2.657000000     0.734000000
H    -7.999000000    -3.483000000     0.190000000
C    -7.685000000    -2.584000000     2.117000000
H    -8.207000000    -3.335000000     2.703000000
C    -7.231000000    -1.450000000     2.739000000
H    -7.257000000    -1.295000000     3.815000000
C    -6.469000000    -0.543000000     2.032000000
O    -5.996000000     0.554000000     2.663000000
C    -4.795000000     0.695000000     3.368000000
C    -4.628000000     1.820000000     4.194000000
H    -5.470000000     2.456000000     4.453000000
C    -3.371000000     2.034000000     4.771000000
O    -3.194000000     3.129000000     5.599000000
C    -2.014000000     3.840000000     5.606000000
C    -1.513000000     4.439000000     4.416000000
H    -1.980000000     4.292000000     3.446000000
C    -1.359000000     4.106000000     6.842000000
H    -1.739000000     3.669000000     7.762000000
C    -0.321000000     5.047000000     6.863000000
H     0.058000000     5.414000000     7.813000000
C     0.093000000     5.680000000     5.706000000
H     0.760000000     6.538000000     5.747000000
C    -0.413000000     5.248000000     4.482000000
O     0.072000000     5.798000000     3.304000000
C     0.970000000     5.212000000     2.433000000
C     1.530000000     5.956000000     1.412000000
H     1.316000000     7.007000000     1.232000000
C     2.483000000     5.473000000     0.565000000
O     3.044000000     6.316000000    -0.416000000
C     3.562000000     5.866000000    -1.571000000
C     2.623000000     5.302000000    -2.433000000
H     1.579000000     5.264000000    -2.130000000
C     4.927000000     5.899000000    -1.847000000
H     5.601000000     6.193000000    -1.047000000
C     5.396000000     5.365000000    -3.037000000
H     6.463000000     5.335000000    -3.245000000
C     4.451000000     4.869000000    -3.930000000
H     4.691000000     4.432000000    -4.895000000
C     3.098000000     4.819000000    -3.617000000
O     2.275000000     4.249000000    -4.531000000
C     2.155000000     2.908000000    -4.791000000
C     1.199000000     2.541000000    -5.797000000
H     0.841000000     3.288000000    -6.501000000
C     0.974000000     1.179000000    -6.083000000
O     0.098000000     0.705000000    -7.103000000
C    -0.835000000    -0.345000000    -6.937000000
C    -0.522000000    -1.603000000    -7.468000000
H     0.390000000    -1.766000000    -8.036000000
C    -1.454000000    -2.629000000    -7.200000000
H    -1.164000000    -3.625000000    -7.524000000
C    -2.575000000    -2.408000000    -6.426000000
H    -3.272000000    -3.227000000    -6.266000000
C    -2.886000000    -1.168000000    -5.989000000
C    -2.003000000    -0.102000000    -6.288000000
H    -2.192000000     0.920000000    -5.969000000
C    -0.400000000     1.871000000    -1.612000000
H    -0.457000000     2.812000000    -2.153000000
C     0.771000000     1.282000000    -1.207000000
H     1.738000000     1.719000000    -1.444000000
C     0.829000000     0.183000000    -0.354000000
H     1.837000000    -0.304000000    -0.168000000
C    -0.363000000    -0.383000000     0.176000000
H    -0.365000000    -1.308000000     0.746000000
C    -1.610000000     0.227000000    -0.163000000
H    -2.535000000    -0.193000000     0.224000000
C    -1.623000000     1.357000000    -1.055000000
C    -2.947000000     1.968000000    -1.367000000
O    -3.962000000     1.626000000    -0.752000000
O    -3.026000000     2.906000000    -2.142000000
O    -9.084000000     3.905000000    -3.916000000
H    -9.508000000     4.502000000    -3.299000000
H    -8.174000000     4.201000000    -3.948000000
O    -1.517000000     6.179000000    -4.972000000
H    -1.818000000     6.369000000    -5.861000000
H    -1.183000000     5.283000000    -5.019000000
O    -8.563000000     0.359000000    -1.835000000
H    -8.682000000     0.849000000    -1.022000000
H    -7.625000000     0.422000000    -2.018000000
O    -4.697000000     3.586000000     1.062000000
H    -5.174000000     3.331000000     1.852000000
H    -4.495000000     2.758000000     0.627000000
O    -2.224000000     5.453000000    -1.983000000
H    -2.425000000     4.571000000    -2.297000000
H    -1.990000000     5.940000000    -2.773000000
O    -2.729000000     7.743000000     2.856000000
H    -2.539000000     7.054000000     2.219000000
H    -3.613000000     7.547000000     3.165000000
O    -7.917000000     4.992000000    -1.044000000
H    -7.095000000     4.637000000    -1.382000000
H    -7.903000000     4.780000000    -0.110000000
O    -7.985000000     4.312000000     1.648000000
H    -7.475000000     5.019000000     2.043000000
H    -8.777000000     4.260000000     2.183000000
O    -2.353000000     5.905000000     0.778000000
H    -2.395000000     4.987000000     1.046000000
H    -2.122000000     5.874000000    -0.151000000
O    -6.003000000     1.712000000    -5.338000000
H    -5.530000000     1.746000000    -4.507000000
H    -6.906000000     1.933000000    -5.109000000
O    -5.029000000     0.733000000    -7.907000000
H    -4.851000000     0.905000000    -6.983000000
H    -4.203000000     0.391000000    -8.250000000
O    -0.935000000     8.527000000     0.307000000
H    -1.060000000     7.585000000     0.423000000
H    -0.893000000     8.874000000     1.198000000
O    -1.857000000     3.392000000    -4.642000000
H    -2.364000000     3.213000000    -3.850000000
H    -2.437000000     3.138000000    -5.360000000
O    -6.513000000     4.728000000    -4.508000000
H    -6.071000000     4.809000000    -3.663000000
H    -6.081000000     5.373000000    -5.068000000
O    -4.245000000     3.680000000    -6.303000000
H    -4.974000000     3.071000000    -6.186000000
H    -4.654000000     4.545000000    -6.311000000
O    -5.302000000     4.112000000    -1.594000000
H    -4.513000000     3.879000000    -2.084000000
H    -5.087000000     3.906000000    -0.684000000
O    -6.084000000     1.655000000    -2.454000000
H    -6.419000000     2.509000000    -2.180000000
H    -5.355000000     1.481000000    -1.859000000
O    -4.638000000     6.805000000    -2.864000000
H    -3.865000000     6.341000000    -2.542000000
H    -5.061000000     7.143000000    -2.075000000
O    -9.223000000     2.385000000     0.160000000
H    -8.617000000     3.064000000     0.460000000
H    -9.375000000     1.841000000     0.932000000
