215
-1484.04147
C    -2.661000000     1.077000000     3.876000000
H    -1.639000000     1.444000000     3.925000000
C    -2.853000000    -0.290000000     3.709000000
C    -4.127000000    -0.773000000     3.634000000
H    -4.371000000    -1.826000000     3.522000000
C    -1.705000000    -1.239000000     3.638000000
O    -0.757000000    -1.165000000     4.727000000
H    -1.083000000    -0.970000000     2.772000000
O    -2.104000000    -2.580000000     3.528000000
C    -1.560000000    -3.333000000     2.565000000
C    -2.264000000    -3.548000000     1.417000000
H    -3.256000000    -3.106000000     1.384000000
C    -1.648000000    -4.302000000     0.379000000
O    -2.260000000    -4.391000000    -0.923000000
C    -0.405000000    -4.810000000     0.526000000
C     0.333000000    -5.484000000    -0.567000000
H     1.133000000    -6.152000000    -0.242000000
C     1.001000000    -4.460000000    -1.477000000
C     2.374000000    -4.121000000    -1.204000000
H     2.852000000    -4.509000000    -0.308000000
H    -0.465000000    -6.044000000    -1.059000000
C     0.256000000    -4.660000000     1.768000000
H     1.256000000    -5.061000000     1.915000000
C    -0.350000000    -3.939000000     2.758000000
C     0.480000000    -3.566000000     3.993000000
H     1.312000000    -4.272000000     4.025000000
H    -0.057000000    -3.592000000     4.944000000
C     1.233000000    -2.182000000     3.977000000
C     2.595000000    -2.057000000     3.662000000
H     3.177000000    -2.896000000     3.289000000
C     0.546000000    -1.023000000     4.364000000
C     1.229000000     0.264000000     4.480000000
H     0.759000000     1.158000000     4.881000000
C     2.570000000     0.327000000     4.066000000
O     3.142000000     1.549000000     3.882000000
C     3.157000000     2.010000000     2.499000000
C     2.633000000     3.448000000     2.295000000
C     3.017000000     4.278000000     1.244000000
H     3.622000000     3.818000000     0.467000000
C     1.701000000     3.930000000     3.187000000
H     1.324000000     3.320000000     4.004000000
O     4.480000000     1.941000000     1.989000000
H     2.475000000     1.347000000     1.947000000
C     3.245000000    -0.820000000     3.639000000
C     4.657000000    -0.737000000     3.110000000
H     5.122000000    -1.701000000     3.325000000
H     5.277000000     0.051000000     3.542000000
C     4.685000000    -0.454000000     1.642000000
C     4.594000000    -1.544000000     0.797000000
H     4.550000000    -2.558000000     1.187000000
C     4.626000000     0.853000000     1.120000000
C     4.726000000     1.058000000    -0.244000000
H     4.618000000     2.086000000    -0.580000000
C     4.694000000    -0.079000000    -1.113000000
O     4.367000000     0.134000000    -2.442000000
C     2.999000000    -0.135000000    -2.886000000
C     2.524000000     0.936000000    -3.898000000
C     2.832000000     2.341000000    -3.672000000
H     3.450000000     2.682000000    -2.845000000
C     1.657000000     0.579000000    -4.869000000
H     1.463000000    -0.476000000    -5.043000000
O     2.943000000    -1.407000000    -3.571000000
H     2.341000000    -0.137000000    -2.004000000
C     4.594000000    -1.387000000    -0.566000000
C     4.513000000    -2.660000000    -1.477000000
H     4.945000000    -3.564000000    -1.044000000
H     5.141000000    -2.533000000    -2.361000000
C     3.112000000    -3.121000000    -1.890000000
C     2.392000000    -2.534000000    -2.933000000
C     1.117000000    -2.966000000    -3.301000000
H     0.599000000    -2.390000000    -4.063000000
C     0.388000000    -3.883000000    -2.530000000
O    -0.965000000    -4.084000000    -2.716000000
C    -1.853000000    -3.426000000    -1.869000000
H    -1.412000000    -2.592000000    -1.303000000
C    -3.112000000    -2.897000000    -2.500000000
C    -4.328000000    -2.779000000    -1.805000000
H    -4.437000000    -3.244000000    -0.828000000
C    -2.947000000    -2.348000000    -3.772000000
H    -1.945000000    -2.431000000    -4.184000000
C    -3.964000000    -1.620000000    -4.272000000
O    -3.825000000    -0.917000000    -5.432000000
C    -5.172000000    -1.442000000    -3.641000000
H    -5.977000000    -0.872000000    -4.099000000
C    -5.443000000    -2.117000000    -2.408000000
O    -6.593000000    -1.899000000    -1.683000000
C    -6.663000000    -2.180000000    -0.332000000
C    -6.391000000    -1.134000000     0.556000000
H    -6.180000000    -0.141000000     0.169000000
C    -6.907000000    -3.461000000     0.091000000
H    -7.136000000    -4.210000000    -0.663000000
C    -7.027000000    -3.716000000     1.481000000
H    -7.292000000    -4.704000000     1.848000000
C    -6.818000000    -2.699000000     2.422000000
H    -7.039000000    -2.803000000     3.481000000
C    -6.529000000    -1.394000000     1.954000000
O    -6.421000000    -0.471000000     2.997000000
C    -5.204000000     0.067000000     3.429000000
C    -5.006000000     1.459000000     3.467000000
H    -5.778000000     2.211000000     3.326000000
C    -3.738000000     1.970000000     3.781000000
O    -3.712000000     3.353000000     3.918000000
C    -2.689000000     3.920000000     4.646000000
C    -1.673000000     4.589000000     3.979000000
H    -1.661000000     4.556000000     2.893000000
C    -2.503000000     3.692000000     6.040000000
H    -3.227000000     3.078000000     6.570000000
C    -1.435000000     4.281000000     6.734000000
H    -1.355000000     4.169000000     7.812000000
C    -0.475000000     5.006000000     6.062000000
H     0.326000000     5.510000000     6.596000000
C    -0.531000000     5.111000000     4.673000000
O     0.421000000     5.859000000     4.034000000
C     1.299000000     5.291000000     3.108000000
C     1.649000000     6.062000000     2.040000000
H     1.201000000     7.023000000     1.799000000
C     2.456000000     5.538000000     1.080000000
O     2.686000000     6.331000000    -0.081000000
C     3.453000000     5.954000000    -1.186000000
C     2.820000000     5.517000000    -2.338000000
H     1.742000000     5.400000000    -2.254000000
C     4.824000000     5.956000000    -1.186000000
H     5.385000000     6.225000000    -0.294000000
C     5.532000000     5.485000000    -2.284000000
H     6.612000000     5.374000000    -2.242000000
C     4.836000000     5.164000000    -3.485000000
H     5.355000000     4.877000000    -4.396000000
C     3.491000000     5.124000000    -3.474000000
O     2.834000000     4.608000000    -4.574000000
C     2.341000000     3.305000000    -4.600000000
C     1.412000000     2.895000000    -5.538000000
H     1.144000000     3.593000000    -6.328000000
C     1.059000000     1.551000000    -5.680000000
O     0.309000000     1.182000000    -6.763000000
C    -0.632000000     0.151000000    -6.813000000
C    -0.459000000    -0.796000000    -7.813000000
H     0.343000000    -0.735000000    -8.544000000
C    -1.331000000    -1.859000000    -7.947000000
H    -1.207000000    -2.605000000    -8.727000000
C    -2.417000000    -1.989000000    -7.047000000
H    -3.191000000    -2.734000000    -7.215000000
C    -2.631000000    -0.990000000    -6.126000000
C    -1.698000000     0.010000000    -5.925000000
H    -1.862000000     0.719000000    -5.118000000
C    -0.151000000     2.458000000    -0.729000000
H    -0.033000000     3.408000000    -1.245000000
C     1.047000000     1.818000000    -0.265000000
H     2.037000000     2.252000000    -0.151000000
C     0.889000000     0.501000000     0.307000000
H     1.741000000     0.082000000     0.743000000
C    -0.383000000    -0.112000000     0.331000000
H    -0.470000000    -1.099000000     0.778000000
C    -1.533000000     0.590000000    -0.069000000
H    -2.521000000     0.140000000    -0.025000000
C    -1.381000000     1.824000000    -0.711000000
C    -2.606000000     2.490000000    -1.325000000
O    -3.750000000     2.050000000    -1.125000000
O    -2.540000000     3.514000000    -2.008000000
O    -6.440000000     3.960000000     0.168000000
H    -6.571000000     3.385000000    -0.586000000
H    -7.031000000     3.616000000     0.837000000
O    -8.779000000     1.626000000    -0.501000000
H    -9.493000000     1.816000000    -1.109000000
H    -7.983000000     1.763000000    -1.015000000
O    -4.811000000     2.396000000    -6.755000000
H    -4.455000000     2.604000000    -5.891000000
H    -4.144000000     2.704000000    -7.369000000
O    -1.571000000     7.500000000    -2.376000000
H    -2.302000000     8.113000000    -2.303000000
H    -1.791000000     6.791000000    -1.772000000
O    -6.516000000     4.205000000    -4.655000000
H    -6.024000000     4.540000000    -3.905000000
H    -6.914000000     4.982000000    -5.047000000
O     0.018000000     7.250000000    -4.557000000
H    -0.430000000     7.539000000    -3.763000000
H     0.071000000     6.298000000    -4.470000000
O    -2.024000000     5.598000000    -0.473000000
H    -2.710000000     5.390000000     0.161000000
H    -1.803000000     4.755000000    -0.871000000
O    -1.367000000     8.067000000     0.739000000
H    -1.565000000     7.202000000     0.379000000
H    -1.432000000     7.953000000     1.687000000
O    -9.109000000     3.750000000    -2.984000000
H    -8.289000000     3.428000000    -2.611000000
H    -9.026000000     4.703000000    -2.958000000
O    -5.305000000     6.382000000    -0.242000000
H    -4.887000000     6.665000000     0.572000000
H    -5.497000000     5.454000000    -0.102000000
O    -2.483000000     6.194000000    -6.493000000
H    -2.227000000     5.280000000    -6.617000000
H    -1.667000000     6.686000000    -6.589000000
O    -6.320000000     2.114000000    -1.924000000
H    -5.463000000     2.036000000    -1.505000000
H    -6.198000000     1.729000000    -2.792000000
O    -6.978000000     1.391000000    -5.291000000
H    -6.379000000     1.377000000    -6.038000000
H    -7.027000000     2.314000000    -5.041000000
O    -1.690000000     3.753000000    -6.363000000
H    -2.102000000     2.908000000    -6.183000000
H    -1.286000000     4.004000000    -5.532000000
O    -8.535000000     5.849000000    -0.447000000
H    -9.145000000     5.140000000    -0.242000000
H    -7.676000000     5.427000000    -0.469000000
O    -0.984000000     4.761000000    -3.753000000
H    -1.393000000     4.193000000    -3.100000000
H    -1.251000000     5.645000000    -3.503000000
O    -3.873000000     4.434000000     1.401000000
H    -4.283000000     3.719000000     0.914000000
H    -3.886000000     4.141000000     2.312000000
O    -3.777000000     2.875000000    -4.481000000
H    -4.461000000     3.498000000    -4.236000000
H    -3.172000000     2.879000000    -3.740000000
O    -4.848000000     4.826000000    -2.614000000
H    -4.237000000     4.275000000    -2.124000000
H    -5.023000000     5.565000000    -2.033000000
