215
-1439.20713
C     3.801000000    -3.113000000    -1.451000000
H     3.225000000    -3.986000000    -1.154000000
C     4.086000000    -2.081000000    -0.585000000
C     4.844000000    -0.981000000    -0.968000000
H     4.920000000    -0.118000000    -0.312000000
C     3.522000000    -2.137000000     0.851000000
O     3.255000000    -3.505000000     1.271000000
H     2.588000000    -1.575000000     0.704000000
O     4.340000000    -1.431000000     1.758000000
C     3.822000000    -0.655000000     2.719000000
C     3.905000000     0.756000000     2.472000000
H     4.545000000     1.166000000     1.696000000
C     3.215000000     1.642000000     3.216000000
O     3.102000000     2.985000000     2.858000000
C     2.315000000     1.119000000     4.203000000
C     1.395000000     2.006000000     5.020000000
H     1.178000000     1.654000000     6.031000000
C     0.074000000     2.314000000     4.348000000
C    -1.014000000     1.516000000     4.641000000
H    -0.793000000     0.726000000     5.355000000
H     1.902000000     2.954000000     5.213000000
C     2.371000000    -0.234000000     4.525000000
H     1.727000000    -0.637000000     5.303000000
C     3.027000000    -1.163000000     3.720000000
C     2.990000000    -2.588000000     4.010000000
H     2.850000000    -2.825000000     5.066000000
H     3.939000000    -3.078000000     3.786000000
C     1.826000000    -3.216000000     3.231000000
C     0.486000000    -3.330000000     3.659000000
H     0.323000000    -2.934000000     4.658000000
C     2.081000000    -3.716000000     1.973000000
C     1.070000000    -4.212000000     1.124000000
H     1.321000000    -4.552000000     0.123000000
C    -0.247000000    -4.215000000     1.536000000
O    -1.230000000    -4.634000000     0.694000000
C    -2.153000000    -3.644000000     0.192000000
C    -2.385000000    -3.932000000    -1.270000000
C    -3.612000000    -3.683000000    -1.905000000
H    -4.484000000    -3.469000000    -1.293000000
C    -1.270000000    -4.261000000    -2.112000000
H    -0.288000000    -4.371000000    -1.660000000
O    -3.439000000    -3.711000000     0.905000000
H    -1.656000000    -2.665000000     0.266000000
C    -0.513000000    -3.847000000     2.865000000
C    -1.901000000    -4.007000000     3.453000000
H    -1.728000000    -4.006000000     4.532000000
H    -2.376000000    -4.924000000     3.100000000
C    -2.755000000    -2.816000000     3.039000000
C    -2.719000000    -1.686000000     3.854000000
H    -2.124000000    -1.630000000     4.762000000
C    -3.503000000    -2.718000000     1.859000000
C    -4.264000000    -1.561000000     1.535000000
H    -4.865000000    -1.602000000     0.630000000
C    -4.277000000    -0.477000000     2.407000000
O    -4.881000000     0.685000000     1.927000000
C    -3.967000000     1.728000000     1.387000000
C    -4.290000000     2.375000000     0.070000000
C    -4.589000000     1.601000000    -1.037000000
H    -4.662000000     0.521000000    -0.946000000
C    -4.175000000     3.775000000    -0.144000000
H    -3.894000000     4.439000000     0.668000000
O    -3.653000000     2.717000000     2.411000000
H    -3.053000000     1.143000000     1.210000000
C    -3.469000000    -0.520000000     3.550000000
C    -3.428000000     0.728000000     4.476000000
H    -3.304000000     0.345000000     5.491000000
H    -4.423000000     1.177000000     4.497000000
C    -2.271000000     1.648000000     4.028000000
C    -2.423000000     2.563000000     3.005000000
C    -1.320000000     3.373000000     2.682000000
H    -1.358000000     4.058000000     1.838000000
C    -0.089000000     3.335000000     3.340000000
O     0.950000000     4.130000000     2.920000000
C     1.930000000     3.386000000     2.115000000
H     1.480000000     2.425000000     1.825000000
C     2.352000000     4.045000000     0.806000000
C     3.682000000     4.136000000     0.374000000
H     4.489000000     3.853000000     1.044000000
C     1.346000000     4.468000000    -0.027000000
H     0.304000000     4.536000000     0.277000000
C     1.616000000     4.955000000    -1.287000000
O     0.597000000     5.286000000    -2.196000000
C     2.899000000     5.024000000    -1.762000000
H     3.215000000     5.397000000    -2.732000000
C     3.942000000     4.648000000    -0.885000000
O     5.246000000     4.524000000    -1.338000000
C     6.051000000     3.385000000    -1.267000000
C     5.755000000     2.356000000    -2.064000000
H     5.061000000     2.595000000    -2.866000000
C     7.098000000     3.340000000    -0.320000000
H     7.380000000     4.264000000     0.177000000
C     7.835000000     2.118000000    -0.185000000
H     8.571000000     2.108000000     0.615000000
C     7.438000000     0.988000000    -0.991000000
H     7.829000000    -0.025000000    -0.936000000
C     6.431000000     1.134000000    -1.941000000
O     6.093000000     0.128000000    -2.748000000
C     5.358000000    -0.930000000    -2.282000000
C     5.245000000    -2.020000000    -3.077000000
H     5.743000000    -1.985000000    -4.043000000
C     4.402000000    -3.108000000    -2.710000000
O     4.320000000    -4.179000000    -3.601000000
C     3.141000000    -4.939000000    -3.633000000
C     1.886000000    -4.349000000    -3.837000000
H     1.855000000    -3.276000000    -4.010000000
C     3.211000000    -6.293000000    -3.513000000
H     4.150000000    -6.806000000    -3.323000000
C     2.110000000    -7.112000000    -3.702000000
H     2.268000000    -8.187000000    -3.701000000
C     0.887000000    -6.519000000    -3.911000000
H     0.029000000    -7.121000000    -4.198000000
C     0.773000000    -5.133000000    -3.961000000
O    -0.434000000    -4.572000000    -4.367000000
C    -1.500000000    -4.389000000    -3.515000000
C    -2.806000000    -4.205000000    -4.044000000
H    -3.024000000    -4.421000000    -5.087000000
C    -3.847000000    -3.763000000    -3.237000000
O    -5.088000000    -3.576000000    -3.779000000
C    -5.665000000    -2.364000000    -3.687000000
C    -4.937000000    -1.170000000    -3.532000000
H    -3.862000000    -1.092000000    -3.391000000
C    -7.078000000    -2.325000000    -3.763000000
H    -7.522000000    -3.301000000    -3.939000000
C    -7.749000000    -1.105000000    -3.844000000
H    -8.808000000    -1.033000000    -4.078000000
C    -7.034000000     0.031000000    -3.507000000
H    -7.523000000     0.999000000    -3.431000000
C    -5.645000000     0.029000000    -3.348000000
O    -4.933000000     1.240000000    -3.349000000
C    -4.832000000     2.123000000    -2.310000000
C    -4.639000000     3.476000000    -2.542000000
H    -4.549000000     3.800000000    -3.576000000
C    -4.378000000     4.267000000    -1.482000000
O    -4.107000000     5.569000000    -1.803000000
C    -2.899000000     6.224000000    -1.608000000
C    -2.823000000     7.510000000    -1.105000000
H    -3.636000000     8.151000000    -0.772000000
C    -1.557000000     8.012000000    -0.741000000
H    -1.400000000     9.010000000    -0.340000000
C    -0.400000000     7.280000000    -1.021000000
H     0.559000000     7.735000000    -0.786000000
C    -0.454000000     6.033000000    -1.753000000
C    -1.742000000     5.513000000    -1.913000000
H    -1.807000000     4.523000000    -2.357000000
C    -0.942000000     1.361000000    -1.681000000
H    -1.982000000     1.433000000    -1.987000000
C    -0.588000000     0.917000000    -0.402000000
H    -1.415000000     0.826000000     0.297000000
C     0.758000000     0.737000000    -0.042000000
H     1.005000000     0.522000000     1.025000000
C     1.678000000     1.053000000    -0.996000000
H     2.731000000     0.971000000    -0.735000000
C     1.359000000     1.479000000    -2.225000000
H     2.142000000     1.735000000    -2.935000000
C     0.022000000     1.591000000    -2.714000000
C    -0.339000000     2.008000000    -4.135000000
O     0.551000000     2.086000000    -4.971000000
O    -1.471000000     1.872000000    -4.534000000
O    -1.426000000     7.004000000    -5.716000000
H    -0.505000000     6.948000000    -5.460000000
H    -1.456000000     7.724000000    -6.345000000
O     1.473000000     6.447000000    -4.669000000
H     1.079000000     6.147000000    -3.849000000
H     2.257000000     6.924000000    -4.397000000
O    -3.665000000     6.492000000    -4.872000000
H    -3.629000000     6.193000000    -3.964000000
H    -2.754000000     6.672000000    -5.101000000
O    -3.371000000     0.514000000    -5.550000000
H    -2.615000000     0.987000000    -5.202000000
H    -4.008000000     0.520000000    -4.835000000
O     3.559000000     2.010000000    -6.025000000
H     3.449000000     2.916000000    -6.315000000
H     2.679000000     1.729000000    -5.776000000
O     2.504000000     0.692000000    -8.797000000
H     2.062000000     0.200000000    -9.489000000
H     3.349000000     0.255000000    -8.693000000
O    -1.768000000     2.463000000   -10.007000000
H    -1.046000000     2.732000000    -9.438000000
H    -1.614000000     1.532000000   -10.164000000
O    -2.713000000     3.688000000    -6.484000000
H    -2.353000000     3.078000000    -5.840000000
H    -2.022000000     3.778000000    -7.140000000
O     1.412000000    -0.973000000    -5.702000000
H     0.851000000    -1.170000000    -4.952000000
H     1.309000000    -0.031000000    -5.837000000
O    -0.346000000    -1.458000000    -3.264000000
H     0.005000000    -0.686000000    -2.820000000
H    -0.605000000    -2.046000000    -2.555000000
O    -4.553000000     5.043000000    -7.907000000
H    -4.006000000     5.660000000    -8.395000000
H    -3.986000000     4.727000000    -7.203000000
O     0.410000000     2.480000000    -8.203000000
H     0.195000000     2.372000000    -7.276000000
H     1.053000000     1.794000000    -8.381000000
O     0.127000000    -2.185000000    -7.568000000
H     0.606000000    -1.746000000    -6.865000000
H    -0.795000000    -2.056000000    -7.345000000
O     1.775000000     4.161000000    -5.952000000
H     1.432000000     4.934000000    -5.505000000
H     1.312000000     3.426000000    -5.551000000
O     3.991000000    -1.809000000    -6.230000000
H     4.211000000    -1.032000000    -6.744000000
H     3.116000000    -1.629000000    -5.886000000
O     1.100000000     5.599000000    -8.238000000
H     1.181000000     4.785000000    -7.741000000
H     1.216000000     6.290000000    -7.586000000
O    -2.285000000    -1.998000000    -6.198000000
H    -1.446000000    -1.934000000    -5.741000000
H    -2.768000000    -1.219000000    -5.922000000
O    -6.340000000     2.082000000    -5.794000000
H    -5.495000000     1.815000000    -5.433000000
H    -6.557000000     1.398000000    -6.428000000
O    -3.644000000     0.584000000    -8.442000000
H    -3.647000000     0.712000000    -7.493000000
H    -3.156000000     1.334000000    -8.783000000
