215
-1457.76454
C    -1.647000000     1.584000000     4.856000000
H    -0.693000000     1.743000000     5.353000000
C    -1.864000000     0.426000000     4.081000000
C    -3.041000000     0.437000000     3.315000000
H    -3.125000000    -0.452000000     2.695000000
C    -0.828000000    -0.718000000     3.897000000
O     0.161000000    -0.646000000     4.936000000
H    -0.242000000    -0.607000000     2.973000000
O    -1.460000000    -1.958000000     3.994000000
C    -1.100000000    -3.017000000     3.219000000
C    -1.986000000    -3.296000000     2.202000000
H    -2.990000000    -2.880000000     2.205000000
C    -1.626000000    -4.162000000     1.196000000
O    -2.494000000    -4.318000000     0.122000000
C    -0.387000000    -4.805000000     1.230000000
C     0.061000000    -5.632000000    -0.022000000
H     0.885000000    -6.332000000     0.131000000
C     0.579000000    -4.703000000    -1.067000000
C     1.911000000    -4.392000000    -1.034000000
H     2.575000000    -4.680000000    -0.223000000
H    -0.883000000    -6.058000000    -0.370000000
C     0.495000000    -4.508000000     2.234000000
H     1.453000000    -5.019000000     2.191000000
C     0.163000000    -3.665000000     3.261000000
C     1.178000000    -3.346000000     4.337000000
H     1.807000000    -4.238000000     4.371000000
H     0.653000000    -3.346000000     5.295000000
C     1.961000000    -1.998000000     4.181000000
C     3.155000000    -2.036000000     3.391000000
H     3.497000000    -3.001000000     3.027000000
C     1.468000000    -0.755000000     4.560000000
C     2.139000000     0.380000000     4.241000000
H     1.739000000     1.349000000     4.530000000
C     3.326000000     0.335000000     3.513000000
O     3.801000000     1.493000000     2.933000000
C     3.382000000     1.729000000     1.576000000
C     2.743000000     3.090000000     1.432000000
C     2.256000000     3.545000000     0.218000000
H     2.336000000     2.960000000    -0.695000000
C     2.659000000     3.881000000     2.582000000
H     3.023000000     3.547000000     3.550000000
O     4.573000000     1.575000000     0.714000000
H     2.645000000     0.994000000     1.221000000
C     3.870000000    -0.882000000     3.103000000
C     5.182000000    -0.960000000     2.313000000
H     5.579000000    -1.967000000     2.457000000
H     5.928000000    -0.211000000     2.585000000
C     4.913000000    -0.861000000     0.764000000
C     4.654000000    -2.066000000     0.044000000
H     4.935000000    -2.980000000     0.560000000
C     4.757000000     0.353000000     0.097000000
C     4.467000000     0.390000000    -1.219000000
H     4.399000000     1.299000000    -1.810000000
C     4.203000000    -0.820000000    -1.925000000
O     3.818000000    -0.737000000    -3.273000000
C     2.434000000    -0.934000000    -3.563000000
C     1.897000000     0.102000000    -4.554000000
C     2.346000000     1.422000000    -4.553000000
H     3.196000000     1.735000000    -3.953000000
C     0.732000000    -0.180000000    -5.272000000
H     0.224000000    -1.137000000    -5.185000000
O     2.121000000    -2.258000000    -3.993000000
H     1.757000000    -0.672000000    -2.736000000
C     4.305000000    -2.046000000    -1.282000000
C     4.046000000    -3.333000000    -2.025000000
H     4.547000000    -4.147000000    -1.498000000
H     4.447000000    -3.398000000    -3.039000000
C     2.588000000    -3.626000000    -2.048000000
C     1.712000000    -3.101000000    -3.040000000
C     0.411000000    -3.354000000    -3.090000000
H    -0.311000000    -2.850000000    -3.727000000
C    -0.167000000    -4.131000000    -2.084000000
O    -1.557000000    -4.208000000    -2.076000000
C    -2.231000000    -3.462000000    -1.031000000
H    -1.585000000    -2.655000000    -0.655000000
C    -3.495000000    -2.803000000    -1.612000000
C    -4.617000000    -2.585000000    -0.869000000
H    -4.593000000    -3.003000000     0.135000000
C    -3.478000000    -2.340000000    -2.919000000
H    -2.573000000    -2.548000000    -3.484000000
C    -4.591000000    -1.623000000    -3.455000000
O    -4.663000000    -1.198000000    -4.756000000
C    -5.711000000    -1.461000000    -2.672000000
H    -6.651000000    -1.135000000    -3.109000000
C    -5.691000000    -1.840000000    -1.356000000
O    -6.835000000    -1.766000000    -0.602000000
C    -6.729000000    -1.251000000     0.652000000
C    -6.009000000    -0.071000000     0.895000000
H    -5.584000000     0.452000000     0.042000000
C    -7.225000000    -2.017000000     1.726000000
H    -7.806000000    -2.901000000     1.477000000
C    -7.062000000    -1.563000000     3.053000000
H    -7.476000000    -2.189000000     3.839000000
C    -6.388000000    -0.325000000     3.336000000
H    -6.234000000     0.098000000     4.326000000
C    -5.884000000     0.364000000     2.209000000
O    -5.103000000     1.502000000     2.459000000
C    -3.997000000     1.469000000     3.336000000
C    -3.757000000     2.582000000     4.088000000
H    -4.424000000     3.437000000     4.158000000
C    -2.532000000     2.715000000     4.755000000
O    -2.201000000     3.907000000     5.365000000
C    -0.880000000     4.218000000     5.518000000
C    -0.099000000     4.563000000     4.471000000
H    -0.411000000     4.426000000     3.439000000
C    -0.429000000     4.422000000     6.808000000
H    -1.082000000     4.260000000     7.662000000
C     0.824000000     5.006000000     7.028000000
H     1.118000000     5.289000000     8.035000000
C     1.594000000     5.497000000     5.980000000
H     2.551000000     6.005000000     6.076000000
C     1.036000000     5.328000000     4.698000000
O     1.708000000     5.844000000     3.613000000
C     1.980000000     5.056000000     2.461000000
C     1.518000000     5.556000000     1.269000000
H     1.083000000     6.547000000     1.368000000
C     1.648000000     4.762000000     0.157000000
O     1.248000000     5.193000000    -1.055000000
C     2.085000000     5.225000000    -2.158000000
C     1.682000000     4.589000000    -3.370000000
H     0.691000000     4.155000000    -3.471000000
C     3.364000000     5.796000000    -2.149000000
H     3.724000000     6.154000000    -1.187000000
C     4.156000000     5.828000000    -3.319000000
H     5.153000000     6.258000000    -3.270000000
C     3.672000000     5.293000000    -4.537000000
H     4.229000000     5.158000000    -5.461000000
C     2.509000000     4.542000000    -4.452000000
O     2.123000000     3.736000000    -5.518000000
C     1.730000000     2.333000000    -5.430000000
C     0.724000000     1.922000000    -6.310000000
H     0.209000000     2.614000000    -6.972000000
C     0.199000000     0.684000000    -6.145000000
O    -0.813000000     0.358000000    -7.054000000
C    -1.752000000    -0.639000000    -6.775000000
C    -1.724000000    -1.716000000    -7.629000000
H    -0.915000000    -1.844000000    -8.344000000
C    -2.754000000    -2.626000000    -7.589000000
H    -2.728000000    -3.521000000    -8.205000000
C    -3.738000000    -2.507000000    -6.545000000
H    -4.529000000    -3.247000000    -6.459000000
C    -3.746000000    -1.408000000    -5.740000000
C    -2.764000000    -0.374000000    -5.869000000
H    -2.721000000     0.529000000    -5.267000000
C    -0.432000000     1.519000000    -1.676000000
H    -0.288000000     2.302000000    -2.416000000
C     0.704000000     0.780000000    -1.198000000
H     1.693000000     1.028000000    -1.574000000
C     0.560000000    -0.304000000    -0.367000000
H     1.486000000    -0.949000000    -0.061000000
C    -0.671000000    -0.551000000     0.177000000
H    -0.630000000    -1.358000000     0.905000000
C    -1.833000000     0.145000000    -0.308000000
H    -2.793000000    -0.081000000     0.149000000
C    -1.677000000     1.253000000    -1.203000000
C    -2.870000000     2.074000000    -1.546000000
O    -3.880000000     1.856000000    -1.019000000
O    -2.761000000     3.049000000    -2.212000000
O    -7.499000000     4.962000000     2.336000000
H    -7.704000000     5.524000000     3.083000000
H    -6.558000000     5.072000000     2.204000000
O    -8.271000000     3.171000000    -4.777000000
H    -9.041000000     3.342000000    -4.235000000
H    -7.561000000     3.638000000    -4.337000000
O    -0.462000000     6.155000000    -5.025000000
H    -1.153000000     5.503000000    -4.912000000
H    -0.337000000     6.526000000    -4.152000000
O    -4.763000000     5.567000000     2.650000000
H    -4.472000000     4.808000000     2.144000000
H    -4.975000000     6.227000000     1.990000000
O    -2.811000000     6.133000000    -6.766000000
H    -2.709000000     5.291000000    -6.323000000
H    -2.193000000     6.097000000    -7.496000000
O    -0.730000000     2.899000000     1.472000000
H    -0.116000000     2.274000000     1.088000000
H    -1.592000000     2.595000000     1.185000000
O    -1.831000000     5.602000000    -2.228000000
H    -1.926000000     4.650000000    -2.246000000
H    -2.725000000     5.930000000    -2.130000000
O    -2.448000000     7.162000000     2.941000000
H    -2.036000000     6.678000000     2.225000000
H    -3.315000000     6.768000000     3.030000000
O    -7.244000000     5.148000000    -1.038000000
H    -6.851000000     4.510000000    -0.442000000
H    -8.089000000     5.357000000    -0.641000000
O    -1.964000000     5.447000000     0.861000000
H    -1.416000000     4.666000000     0.940000000
H    -1.875000000     5.710000000    -0.055000000
O    -6.976000000     0.617000000    -5.024000000
H    -6.335000000     0.805000000    -4.338000000
H    -7.701000000     1.215000000    -4.845000000
O    -0.080000000     8.006000000    -2.178000000
H    -0.369000000     7.097000000    -2.107000000
H    -0.340000000     8.405000000    -1.348000000
O    -2.246000000     3.660000000    -5.112000000
H    -2.301000000     3.461000000    -4.177000000
H    -2.905000000     3.097000000    -5.517000000
O    -5.299000000     4.643000000    -5.355000000
H    -4.593000000     5.000000000    -4.814000000
H    -5.710000000     5.412000000    -5.749000000
O    -4.226000000     8.356000000    -2.746000000
H    -3.982000000     8.409000000    -3.671000000
H    -4.442000000     7.434000000    -2.608000000
O    -4.370000000     2.307000000    -6.260000000
H    -4.953000000     1.561000000    -6.404000000
H    -4.952000000     3.016000000    -5.987000000
O    -5.670000000     3.324000000     0.293000000
H    -5.063000000     2.702000000    -0.109000000
H    -6.308000000     2.775000000     0.749000000
O    -6.384000000     1.744000000    -2.387000000
H    -6.912000000     1.398000000    -1.668000000
H    -5.592000000     2.077000000    -1.964000000
O    -4.488000000     5.570000000    -1.745000000
H    -4.043000000     4.729000000    -1.847000000
H    -5.412000000     5.342000000    -1.645000000
