215
-1474.66669
C    -3.204000000     0.785000000     4.382000000
H    -2.304000000     0.952000000     4.969000000
C    -3.233000000    -0.427000000     3.706000000
C    -4.282000000    -0.650000000     2.793000000
H    -4.174000000    -1.432000000     2.046000000
C    -2.055000000    -1.340000000     3.787000000
O    -1.407000000    -1.274000000     5.115000000
H    -1.283000000    -1.100000000     3.041000000
O    -2.467000000    -2.700000000     3.635000000
C    -1.619000000    -3.354000000     2.704000000
C    -2.034000000    -3.464000000     1.339000000
H    -3.016000000    -3.135000000     1.011000000
C    -1.179000000    -4.140000000     0.421000000
O    -1.686000000    -4.222000000    -0.898000000
C     0.098000000    -4.545000000     0.834000000
C     0.950000000    -5.387000000    -0.073000000
H     1.599000000    -6.038000000     0.517000000
C     1.809000000    -4.620000000    -1.035000000
C     3.089000000    -4.123000000    -0.625000000
H     3.552000000    -4.468000000     0.296000000
H     0.411000000    -6.183000000    -0.592000000
C     0.477000000    -4.403000000     2.182000000
H     1.380000000    -4.908000000     2.516000000
C    -0.334000000    -3.751000000     3.101000000
C     0.209000000    -3.603000000     4.548000000
H     1.077000000    -4.207000000     4.820000000
H    -0.558000000    -3.762000000     5.308000000
C     0.793000000    -2.188000000     4.550000000
C     2.141000000    -2.018000000     4.128000000
H     2.771000000    -2.895000000     4.001000000
C    -0.024000000    -1.097000000     4.857000000
C     0.491000000     0.191000000     4.708000000
H    -0.091000000     1.084000000     4.921000000
C     1.775000000     0.366000000     4.193000000
O     2.202000000     1.647000000     3.923000000
C     2.308000000     2.053000000     2.608000000
C     1.620000000     3.394000000     2.465000000
C     1.996000000     4.189000000     1.398000000
H     2.723000000     3.880000000     0.652000000
C     0.795000000     3.845000000     3.516000000
H     0.527000000     3.231000000     4.372000000
O     3.711000000     2.072000000     2.209000000
H     1.702000000     1.384000000     1.978000000
C     2.620000000    -0.725000000     4.023000000
C     4.028000000    -0.590000000     3.536000000
H     4.600000000    -1.487000000     3.781000000
H     4.437000000     0.274000000     4.064000000
C     4.166000000    -0.338000000     2.028000000
C     4.361000000    -1.458000000     1.200000000
H     4.414000000    -2.452000000     1.636000000
C     4.151000000     0.934000000     1.495000000
C     4.276000000     1.097000000     0.140000000
H     4.302000000     2.078000000    -0.327000000
C     4.432000000     0.003000000    -0.709000000
O     4.484000000     0.168000000    -2.075000000
C     3.371000000    -0.386000000    -2.790000000
C     2.691000000     0.564000000    -3.685000000
C     2.644000000     1.916000000    -3.353000000
H     3.203000000     2.292000000    -2.500000000
C     1.999000000     0.150000000    -4.838000000
H     1.920000000    -0.879000000    -5.181000000
O     3.628000000    -1.682000000    -3.455000000
H     2.623000000    -0.681000000    -2.039000000
C     4.561000000    -1.284000000    -0.136000000
C     5.018000000    -2.483000000    -0.979000000
H     5.618000000    -3.162000000    -0.369000000
H     5.670000000    -2.111000000    -1.772000000
C     3.752000000    -3.157000000    -1.458000000
C     3.199000000    -2.776000000    -2.661000000
C     1.950000000    -3.326000000    -3.090000000
H     1.447000000    -2.981000000    -3.990000000
C     1.292000000    -4.261000000    -2.271000000
O    -0.019000000    -4.511000000    -2.586000000
C    -0.949000000    -3.552000000    -1.967000000
H    -0.313000000    -2.738000000    -1.587000000
C    -1.887000000    -2.849000000    -2.884000000
C    -2.897000000    -2.035000000    -2.359000000
H    -2.868000000    -1.756000000    -1.309000000
C    -1.867000000    -3.108000000    -4.226000000
H    -1.062000000    -3.757000000    -4.561000000
C    -2.743000000    -2.507000000    -5.080000000
O    -2.564000000    -2.616000000    -6.498000000
C    -3.661000000    -1.630000000    -4.550000000
H    -4.265000000    -1.082000000    -5.268000000
C    -3.838000000    -1.421000000    -3.200000000
O    -4.949000000    -0.796000000    -2.717000000
C    -5.541000000    -1.181000000    -1.518000000
C    -5.557000000    -0.315000000    -0.419000000
H    -5.028000000     0.627000000    -0.538000000
C    -5.991000000    -2.469000000    -1.366000000
H    -5.906000000    -3.116000000    -2.236000000
C    -6.707000000    -2.853000000    -0.216000000
H    -7.055000000    -3.883000000    -0.203000000
C    -6.852000000    -1.961000000     0.872000000
H    -7.408000000    -2.256000000     1.758000000
C    -6.258000000    -0.701000000     0.752000000
O    -6.320000000     0.164000000     1.805000000
C    -5.315000000     0.290000000     2.706000000
C    -5.307000000     1.428000000     3.446000000
H    -6.166000000     2.094000000     3.458000000
C    -4.266000000     1.630000000     4.337000000
O    -4.297000000     2.739000000     5.127000000
C    -3.139000000     3.392000000     5.655000000
C    -2.214000000     3.959000000     4.860000000
H    -2.138000000     3.703000000     3.806000000
C    -3.266000000     3.917000000     6.927000000
H    -4.085000000     3.525000000     7.525000000
C    -2.407000000     4.887000000     7.448000000
H    -2.520000000     5.178000000     8.489000000
C    -1.482000000     5.488000000     6.644000000
H    -0.838000000     6.319000000     6.920000000
C    -1.412000000     5.014000000     5.331000000
O    -0.612000000     5.700000000     4.397000000
C     0.246000000     5.163000000     3.424000000
C     0.550000000     5.911000000     2.300000000
H     0.116000000     6.899000000     2.176000000
C     1.427000000     5.482000000     1.282000000
O     1.683000000     6.365000000     0.192000000
C     2.380000000     5.948000000    -0.886000000
C     1.819000000     5.233000000    -1.932000000
H     0.778000000     4.934000000    -1.837000000
C     3.737000000     6.399000000    -1.091000000
H     4.225000000     6.991000000    -0.320000000
C     4.494000000     5.904000000    -2.176000000
H     5.503000000     6.283000000    -2.320000000
C     3.864000000     5.243000000    -3.217000000
H     4.462000000     5.031000000    -4.100000000
C     2.548000000     4.855000000    -3.014000000
O     1.898000000     4.225000000    -4.022000000
C     2.001000000     2.877000000    -4.218000000
C     1.390000000     2.495000000    -5.350000000
H     0.906000000     3.164000000    -6.057000000
C     1.396000000     1.093000000    -5.666000000
O     0.982000000     0.690000000    -6.949000000
C     0.270000000    -0.434000000    -7.422000000
C     0.489000000    -0.798000000    -8.738000000
H     1.317000000    -0.321000000    -9.255000000
C    -0.294000000    -1.827000000    -9.262000000
H     0.015000000    -2.158000000   -10.250000000
C    -1.213000000    -2.498000000    -8.466000000
H    -1.858000000    -3.266000000    -8.885000000
C    -1.538000000    -2.015000000    -7.210000000
C    -0.718000000    -1.050000000    -6.644000000
H    -0.995000000    -0.642000000    -5.676000000
C    -0.168000000     2.315000000    -0.176000000
H     0.384000000     3.182000000    -0.528000000
C     0.388000000     1.053000000    -0.146000000
H     1.439000000     0.887000000    -0.372000000
C    -0.375000000    -0.036000000     0.186000000
H     0.076000000    -1.031000000     0.243000000
C    -1.667000000     0.094000000     0.510000000
H    -2.212000000    -0.803000000     0.793000000
C    -2.241000000     1.372000000     0.633000000
H    -3.232000000     1.521000000     1.055000000
C    -1.498000000     2.501000000     0.276000000
C    -2.206000000     3.900000000     0.336000000
O    -3.340000000     4.027000000     0.746000000
O    -1.627000000     4.820000000    -0.242000000
O    -0.475000000     6.049000000    -4.504000000
H    -0.973000000     5.479000000    -3.919000000
H     0.441000000     5.859000000    -4.301000000
O    -2.930000000     7.123000000     1.989000000
H    -3.345000000     6.818000000     1.182000000
H    -2.488000000     6.349000000     2.338000000
O    -5.565000000     8.794000000     1.210000000
H    -5.588000000     7.871000000     0.956000000
H    -4.641000000     8.971000000     1.385000000
O    -1.332000000     9.151000000     1.896000000
H    -1.049000000     9.172000000     0.982000000
H    -1.998000000     8.464000000     1.925000000
O    -5.185000000     1.863000000    -3.085000000
H    -5.286000000     0.931000000    -2.895000000
H    -4.794000000     1.889000000    -3.958000000
O    -4.026000000     4.989000000    -5.932000000
H    -3.262000000     4.458000000    -6.155000000
H    -3.670000000     5.725000000    -5.435000000
O    -5.093000000     6.181000000     0.097000000
H    -4.534000000     5.469000000     0.409000000
H    -5.836000000     5.738000000    -0.314000000
O    -3.300000000     7.056000000    -4.518000000
H    -2.387000000     6.794000000    -4.400000000
H    -3.517000000     7.535000000    -3.719000000
O    -5.559000000     3.320000000    -0.441000000
H    -4.820000000     3.617000000     0.091000000
H    -5.155000000     2.842000000    -1.165000000
O    -4.184000000     8.266000000     4.377000000
H    -4.840000000     7.623000000     4.646000000
H    -3.790000000     7.892000000     3.589000000
O    -1.867000000     2.865000000    -6.092000000
H    -1.355000000     2.776000000    -5.288000000
H    -2.632000000     2.307000000    -5.952000000
O    -7.728000000     4.370000000     1.437000000
H    -8.581000000     4.580000000     1.057000000
H    -7.362000000     3.706000000     0.853000000
O    -4.031000000     7.624000000    -1.889000000
H    -3.284000000     7.737000000    -1.301000000
H    -4.678000000     7.149000000    -1.366000000
O    -1.892000000     4.344000000    -3.060000000
H    -1.803000000     4.524000000    -2.124000000
H    -2.022000000     3.397000000    -3.110000000
O    -5.508000000     5.812000000     5.305000000
H    -5.075000000     5.245000000     4.667000000
H    -6.188000000     5.261000000     5.692000000
O    -4.902000000     4.670000000     2.849000000
H    -5.810000000     4.472000000     2.621000000
H    -4.393000000     4.350000000     2.104000000
O    -1.062000000     1.032000000    -3.005000000
H    -1.040000000     0.197000000    -3.471000000
H    -1.007000000     0.792000000    -2.080000000
O    -1.497000000     7.583000000    -0.671000000
H    -1.630000000     6.646000000    -0.529000000
H    -0.827000000     7.630000000    -1.353000000
O    -8.078000000     2.993000000    -2.974000000
H    -7.152000000     3.186000000    -2.824000000
H    -8.075000000     2.328000000    -3.662000000
