215
-1440.93590
C     3.870000000    -2.919000000    -1.968000000
H     3.183000000    -3.723000000    -1.715000000
C     4.223000000    -2.052000000    -0.922000000
C     5.035000000    -0.976000000    -1.263000000
H     5.339000000    -0.256000000    -0.507000000
C     3.705000000    -2.148000000     0.506000000
O     3.363000000    -3.490000000     0.856000000
H     2.772000000    -1.567000000     0.469000000
O     4.614000000    -1.621000000     1.505000000
C     3.985000000    -0.887000000     2.449000000
C     3.996000000     0.484000000     2.256000000
H     4.566000000     0.910000000     1.434000000
C     3.355000000     1.362000000     3.095000000
O     3.204000000     2.623000000     2.624000000
C     2.633000000     0.825000000     4.134000000
C     1.736000000     1.660000000     4.970000000
H     1.735000000     1.284000000     5.995000000
C     0.311000000     1.884000000     4.403000000
C    -0.802000000     1.084000000     4.843000000
H    -0.670000000     0.415000000     5.690000000
H     2.124000000     2.674000000     5.087000000
C     2.702000000    -0.536000000     4.407000000
H     2.137000000    -0.938000000     5.244000000
C     3.351000000    -1.461000000     3.586000000
C     2.996000000    -2.908000000     3.630000000
H     2.757000000    -3.202000000     4.655000000
H     3.868000000    -3.519000000     3.388000000
C     1.864000000    -3.313000000     2.713000000
C     0.622000000    -3.566000000     3.263000000
H     0.446000000    -3.456000000     4.330000000
C     2.100000000    -3.734000000     1.418000000
C     1.066000000    -4.219000000     0.622000000
H     1.304000000    -4.551000000    -0.385000000
C    -0.240000000    -4.408000000     1.170000000
O    -1.186000000    -4.649000000     0.210000000
C    -2.067000000    -3.523000000    -0.129000000
C    -2.411000000    -3.687000000    -1.637000000
C    -3.658000000    -3.276000000    -2.012000000
H    -4.468000000    -3.126000000    -1.304000000
C    -1.463000000    -4.074000000    -2.586000000
H    -0.530000000    -4.410000000    -2.143000000
O    -3.293000000    -3.640000000     0.748000000
H    -1.514000000    -2.595000000     0.079000000
C    -0.489000000    -3.989000000     2.481000000
C    -1.871000000    -4.131000000     3.164000000
H    -1.864000000    -4.324000000     4.239000000
H    -2.434000000    -4.956000000     2.723000000
C    -2.612000000    -2.860000000     2.912000000
C    -2.669000000    -1.833000000     3.858000000
H    -2.081000000    -1.972000000     4.761000000
C    -3.406000000    -2.692000000     1.763000000
C    -4.099000000    -1.573000000     1.518000000
H    -4.514000000    -1.507000000     0.516000000
C    -4.112000000    -0.544000000     2.454000000
O    -4.614000000     0.739000000     2.175000000
C    -3.691000000     1.626000000     1.552000000
C    -4.168000000     2.294000000     0.280000000
C    -4.905000000     1.530000000    -0.657000000
H    -5.167000000     0.491000000    -0.473000000
C    -3.917000000     3.667000000     0.026000000
H    -3.454000000     4.254000000     0.815000000
O    -3.385000000     2.544000000     2.676000000
H    -2.759000000     1.070000000     1.372000000
C    -3.462000000    -0.664000000     3.661000000
C    -3.261000000     0.428000000     4.667000000
H    -3.220000000     0.069000000     5.698000000
H    -4.075000000     1.155000000     4.711000000
C    -2.084000000     1.347000000     4.299000000
C    -2.209000000     2.333000000     3.280000000
C    -1.152000000     3.037000000     2.863000000
H    -1.244000000     3.856000000     2.153000000
C     0.118000000     2.833000000     3.415000000
O     1.165000000     3.538000000     2.802000000
C     2.060000000     2.975000000     1.837000000
H     1.586000000     2.058000000     1.458000000
C     2.464000000     3.941000000     0.703000000
C     3.778000000     4.100000000     0.287000000
H     4.619000000     3.618000000     0.778000000
C     1.444000000     4.515000000    -0.080000000
H     0.410000000     4.281000000     0.158000000
C     1.766000000     5.356000000    -1.120000000
O     0.709000000     5.866000000    -1.870000000
C     3.093000000     5.514000000    -1.530000000
H     3.339000000     6.168000000    -2.362000000
C     4.113000000     4.847000000    -0.824000000
O     5.442000000     4.799000000    -1.273000000
C     6.081000000     3.612000000    -1.373000000
C     5.847000000     2.649000000    -2.335000000
H     5.135000000     2.882000000    -3.123000000
C     7.177000000     3.470000000    -0.483000000
H     7.418000000     4.326000000     0.143000000
C     7.795000000     2.244000000    -0.361000000
H     8.602000000     2.095000000     0.352000000
C     7.525000000     1.213000000    -1.307000000
H     7.926000000     0.205000000    -1.238000000
C     6.529000000     1.403000000    -2.290000000
O     6.143000000     0.360000000    -3.055000000
C     5.486000000    -0.745000000    -2.588000000
C     5.029000000    -1.560000000    -3.600000000
H     5.272000000    -1.360000000    -4.641000000
C     4.342000000    -2.723000000    -3.300000000
O     3.852000000    -3.447000000    -4.354000000
C     2.816000000    -4.292000000    -4.364000000
C     1.538000000    -3.854000000    -4.606000000
H     1.422000000    -2.872000000    -5.057000000
C     3.029000000    -5.642000000    -3.956000000
H     4.050000000    -5.980000000    -3.796000000
C     2.010000000    -6.539000000    -3.895000000
H     2.185000000    -7.587000000    -3.664000000
C     0.738000000    -6.101000000    -4.097000000
H    -0.091000000    -6.797000000    -3.998000000
C     0.465000000    -4.768000000    -4.494000000
O    -0.747000000    -4.356000000    -4.813000000
C    -1.762000000    -4.084000000    -3.937000000
C    -3.092000000    -3.782000000    -4.335000000
H    -3.449000000    -3.844000000    -5.360000000
C    -4.016000000    -3.306000000    -3.388000000
O    -5.313000000    -3.145000000    -3.766000000
C    -6.086000000    -2.132000000    -3.200000000
C    -5.692000000    -0.848000000    -3.273000000
H    -4.751000000    -0.653000000    -3.782000000
C    -7.350000000    -2.415000000    -2.787000000
H    -7.529000000    -3.471000000    -2.601000000
C    -8.208000000    -1.396000000    -2.322000000
H    -9.201000000    -1.546000000    -1.904000000
C    -7.709000000    -0.033000000    -2.391000000
H    -8.319000000     0.778000000    -2.002000000
C    -6.450000000     0.257000000    -2.839000000
O    -5.991000000     1.468000000    -2.916000000
C    -5.258000000     2.113000000    -1.928000000
C    -4.839000000     3.412000000    -2.208000000
H    -4.903000000     3.717000000    -3.250000000
C    -4.189000000     4.198000000    -1.232000000
O    -3.909000000     5.464000000    -1.565000000
C    -2.759000000     6.076000000    -1.133000000
C    -2.652000000     6.877000000     0.062000000
H    -3.596000000     7.049000000     0.572000000
C    -1.489000000     7.336000000     0.592000000
H    -1.446000000     7.989000000     1.460000000
C    -0.392000000     7.145000000    -0.157000000
H     0.556000000     7.561000000     0.173000000
C    -0.412000000     6.242000000    -1.222000000
C    -1.588000000     5.684000000    -1.699000000
H    -1.639000000     4.932000000    -2.483000000
C    -0.650000000     1.130000000    -1.674000000
H    -1.641000000     1.401000000    -2.030000000
C    -0.495000000     0.230000000    -0.645000000
H    -1.336000000    -0.364000000    -0.298000000
C     0.731000000     0.018000000    -0.057000000
H     0.853000000    -0.602000000     0.870000000
C     1.788000000     0.728000000    -0.570000000
H     2.787000000     0.678000000    -0.146000000
C     1.666000000     1.592000000    -1.691000000
H     2.530000000     2.132000000    -2.068000000
C     0.425000000     1.898000000    -2.178000000
C     0.412000000     2.731000000    -3.448000000
O     1.406000000     2.825000000    -4.085000000
O    -0.648000000     2.968000000    -4.001000000
O     6.239000000     4.771000000    -5.348000000
H     5.329000000     4.499000000    -5.468000000
H     6.717000000     3.954000000    -5.208000000
O    -0.182000000     7.061000000    -7.838000000
H     0.626000000     7.076000000    -7.326000000
H     0.063000000     6.638000000    -8.661000000
O    -0.938000000     7.044000000    -4.173000000
H    -0.290000000     6.724000000    -3.545000000
H    -0.692000000     7.956000000    -4.327000000
O     4.508000000     1.805000000    -7.133000000
H     4.252000000     2.351000000    -6.389000000
H     5.285000000     2.235000000    -7.489000000
O    -3.842000000     6.810000000    -4.614000000
H    -3.978000000     7.691000000    -4.961000000
H    -3.230000000     6.930000000    -3.888000000
O    -4.658000000     4.348000000    -6.125000000
H    -4.096000000     3.580000000    -6.224000000
H    -4.072000000     5.035000000    -5.809000000
O    -2.569000000     0.998000000    -4.410000000
H    -2.037000000     1.736000000    -4.112000000
H    -1.946000000     0.279000000    -4.514000000
O     3.669000000     3.772000000    -5.507000000
H     2.857000000     4.163000000    -5.830000000
H     3.392000000     3.202000000    -4.790000000
O     1.204000000     2.073000000    -9.171000000
H     0.795000000     2.314000000    -8.340000000
H     1.179000000     1.117000000    -9.181000000
O    -1.925000000     3.912000000    -8.544000000
H    -2.095000000     4.191000000    -7.644000000
H    -1.085000000     4.314000000    -8.765000000
O    -1.901000000     4.598000000    -5.535000000
H    -1.697000000     4.073000000    -4.761000000
H    -2.010000000     5.487000000    -5.199000000
O     1.533000000     0.036000000    -4.852000000
H     0.863000000    -0.415000000    -4.337000000
H     1.637000000     0.883000000    -4.419000000
O    -0.320000000    -1.436000000    -3.673000000
H    -0.187000000    -1.555000000    -2.733000000
H    -0.734000000    -2.250000000    -3.961000000
O    -0.520000000     1.363000000    -6.300000000
H     0.279000000     0.902000000    -6.046000000
H    -0.561000000     2.115000000    -5.708000000
O    -0.405000000    -1.627000000    -7.344000000
H    -0.002000000    -1.358000000    -6.518000000
H    -1.341000000    -1.481000000    -7.212000000
O     1.300000000     4.897000000    -6.064000000
H     0.497000000     5.154000000    -6.518000000
H     1.037000000     4.162000000    -5.509000000
O     3.410000000    -0.623000000    -6.793000000
H     4.083000000     0.050000000    -6.894000000
H     2.892000000    -0.333000000    -6.042000000
O    -3.053000000    -1.416000000    -6.800000000
H    -3.915000000    -1.811000000    -6.931000000
H    -3.238000000    -0.563000000    -6.407000000
O    -3.481000000     1.966000000    -6.769000000
H    -3.196000000     1.769000000    -5.876000000
H    -2.730000000     1.736000000    -7.316000000
