215
-1449.35029
C    -2.772000000     0.344000000     4.731000000
H    -1.856000000     0.547000000     5.279000000
C    -2.867000000    -0.729000000     3.845000000
C    -4.038000000    -0.938000000     3.144000000
H    -4.119000000    -1.729000000     2.404000000
C    -1.586000000    -1.576000000     3.640000000
O    -0.753000000    -1.518000000     4.862000000
H    -0.985000000    -1.133000000     2.832000000
O    -1.990000000    -2.937000000     3.339000000
C    -1.202000000    -3.619000000     2.426000000
C    -1.784000000    -3.914000000     1.214000000
H    -2.830000000    -3.628000000     1.151000000
C    -1.225000000    -4.715000000     0.234000000
O    -1.743000000    -4.636000000    -1.050000000
C     0.150000000    -5.017000000     0.415000000
C     1.015000000    -5.672000000    -0.635000000
H     1.812000000    -6.303000000    -0.236000000
C     1.734000000    -4.628000000    -1.509000000
C     2.972000000    -4.124000000    -1.209000000
H     3.583000000    -4.550000000    -0.417000000
H     0.356000000    -6.266000000    -1.271000000
C     0.820000000    -4.614000000     1.587000000
H     1.896000000    -4.761000000     1.623000000
C     0.131000000    -4.025000000     2.643000000
C     0.804000000    -3.757000000     3.960000000
H     1.596000000    -4.502000000     4.053000000
H     0.151000000    -3.956000000     4.812000000
C     1.364000000    -2.378000000     4.158000000
C     2.697000000    -2.023000000     3.790000000
H     3.348000000    -2.738000000     3.295000000
C     0.584000000    -1.379000000     4.704000000
C     1.009000000    -0.024000000     4.698000000
H     0.312000000     0.718000000     5.080000000
C     2.265000000     0.315000000     4.259000000
O     2.549000000     1.665000000     4.137000000
C     2.495000000     2.032000000     2.658000000
C     1.814000000     3.375000000     2.535000000
C     2.165000000     4.165000000     1.406000000
H     3.035000000     3.945000000     0.792000000
C     0.736000000     3.720000000     3.358000000
H     0.323000000     3.018000000     4.077000000
O     3.817000000     2.086000000     2.112000000
H     1.868000000     1.294000000     2.136000000
C     3.123000000    -0.684000000     3.768000000
C     4.530000000    -0.248000000     3.251000000
H     5.219000000    -1.050000000     3.524000000
H     4.913000000     0.642000000     3.755000000
C     4.531000000    -0.205000000     1.694000000
C     4.700000000    -1.303000000     0.870000000
H     4.974000000    -2.285000000     1.244000000
C     4.217000000     1.067000000     1.253000000
C     4.052000000     1.225000000    -0.141000000
H     3.827000000     2.227000000    -0.498000000
C     4.163000000     0.089000000    -0.953000000
O     4.219000000     0.331000000    -2.333000000
C     2.912000000    -0.003000000    -2.996000000
C     2.550000000     0.909000000    -4.149000000
C     2.475000000     2.276000000    -3.816000000
H     2.897000000     2.574000000    -2.860000000
C     1.943000000     0.500000000    -5.340000000
H     1.641000000    -0.539000000    -5.444000000
O     3.146000000    -1.299000000    -3.585000000
H     2.022000000    -0.039000000    -2.351000000
C     4.567000000    -1.163000000    -0.507000000
C     4.789000000    -2.394000000    -1.402000000
H     5.460000000    -3.138000000    -0.968000000
H     5.334000000    -2.054000000    -2.285000000
C     3.469000000    -3.004000000    -1.905000000
C     2.675000000    -2.399000000    -2.931000000
C     1.421000000    -2.911000000    -3.200000000
H     0.766000000    -2.462000000    -3.942000000
C     0.973000000    -4.024000000    -2.493000000
O    -0.314000000    -4.267000000    -2.809000000
C    -1.282000000    -3.611000000    -1.974000000
H    -0.674000000    -2.866000000    -1.440000000
C    -2.405000000    -2.887000000    -2.789000000
C    -3.506000000    -2.370000000    -2.074000000
H    -3.636000000    -2.598000000    -1.020000000
C    -2.287000000    -2.461000000    -4.139000000
H    -1.417000000    -2.824000000    -4.682000000
C    -3.280000000    -1.686000000    -4.758000000
O    -3.099000000    -1.372000000    -6.062000000
C    -4.335000000    -1.164000000    -4.036000000
H    -5.013000000    -0.430000000    -4.466000000
C    -4.421000000    -1.473000000    -2.666000000
O    -5.526000000    -1.002000000    -1.982000000
C    -5.907000000    -1.393000000    -0.650000000
C    -5.791000000    -0.534000000     0.479000000
H    -5.295000000     0.424000000     0.345000000
C    -6.516000000    -2.657000000    -0.445000000
H    -6.726000000    -3.337000000    -1.267000000
C    -6.924000000    -3.087000000     0.810000000
H    -7.554000000    -3.969000000     0.888000000
C    -6.852000000    -2.185000000     1.892000000
H    -7.163000000    -2.399000000     2.911000000
C    -6.415000000    -0.883000000     1.663000000
O    -6.294000000    -0.039000000     2.709000000
C    -5.071000000    -0.007000000     3.295000000
C    -5.035000000     0.950000000     4.257000000
H    -5.878000000     1.584000000     4.524000000
C    -3.869000000     1.142000000     5.004000000
O    -3.775000000     2.073000000     6.035000000
C    -2.798000000     3.035000000     6.105000000
C    -2.324000000     3.617000000     4.942000000
H    -2.673000000     3.207000000     3.998000000
C    -2.555000000     3.692000000     7.290000000
H    -3.121000000     3.365000000     8.158000000
C    -1.651000000     4.816000000     7.409000000
H    -1.344000000     5.305000000     8.330000000
C    -1.154000000     5.298000000     6.237000000
H    -0.610000000     6.235000000     6.153000000
C    -1.396000000     4.697000000     4.998000000
O    -1.066000000     5.327000000     3.848000000
C    -0.024000000     4.904000000     3.076000000
C     0.402000000     5.721000000     2.031000000
H    -0.178000000     6.604000000     1.777000000
C     1.382000000     5.336000000     1.085000000
O     1.743000000     6.296000000     0.174000000
C     2.420000000     6.124000000    -0.984000000
C     1.736000000     5.510000000    -2.021000000
H     0.674000000     5.308000000    -1.908000000
C     3.773000000     6.373000000    -1.068000000
H     4.291000000     6.870000000    -0.253000000
C     4.452000000     5.904000000    -2.215000000
H     5.506000000     6.113000000    -2.383000000
C     3.770000000     5.339000000    -3.321000000
H     4.243000000     5.121000000    -4.275000000
C     2.398000000     5.124000000    -3.186000000
O     1.738000000     4.517000000    -4.257000000
C     1.950000000     3.223000000    -4.666000000
C     1.467000000     2.841000000    -5.893000000
H     1.102000000     3.651000000    -6.520000000
C     1.448000000     1.464000000    -6.220000000
O     0.676000000     1.156000000    -7.259000000
C     0.003000000     0.027000000    -7.426000000
C     0.361000000    -0.936000000    -8.355000000
H     1.243000000    -0.811000000    -8.977000000
C    -0.386000000    -2.107000000    -8.397000000
H    -0.140000000    -2.855000000    -9.147000000
C    -1.583000000    -2.215000000    -7.733000000
H    -2.161000000    -3.129000000    -7.841000000
C    -1.926000000    -1.283000000    -6.745000000
C    -1.152000000    -0.180000000    -6.582000000
H    -1.404000000     0.607000000    -5.876000000
C    -0.123000000     2.267000000    -0.364000000
H     0.424000000     3.204000000    -0.429000000
C     0.398000000     0.969000000    -0.519000000
H     1.477000000     0.857000000    -0.578000000
C    -0.300000000    -0.178000000    -0.318000000
H     0.243000000    -1.100000000    -0.378000000
C    -1.629000000    -0.010000000     0.120000000
H    -2.302000000    -0.846000000     0.291000000
C    -2.210000000     1.195000000     0.240000000
H    -3.238000000     1.311000000     0.573000000
C    -1.541000000     2.349000000    -0.177000000
C    -2.315000000     3.715000000    -0.140000000
O    -3.500000000     3.638000000     0.013000000
O    -1.673000000     4.748000000    -0.257000000
O    -7.176000000     6.458000000    -1.813000000
H    -6.487000000     5.796000000    -1.755000000
H    -7.825000000     6.186000000    -1.164000000
O    -2.072000000     8.961000000    -0.987000000
H    -2.314000000     9.824000000    -1.323000000
H    -2.500000000     8.345000000    -1.582000000
O    -0.145000000     6.459000000    -4.581000000
H    -0.984000000     6.144000000    -4.244000000
H     0.428000000     5.694000000    -4.550000000
O    -3.615000000     5.756000000     2.901000000
H    -3.436000000     6.083000000     2.019000000
H    -3.525000000     4.806000000     2.826000000
O    -5.433000000     7.937000000     0.806000000
H    -5.935000000     7.279000000     1.287000000
H    -4.573000000     7.537000000     0.681000000
O    -1.455000000     8.119000000     3.786000000
H    -1.644000000     7.187000000     3.677000000
H    -1.881000000     8.354000000     4.611000000
O    -6.727000000     5.918000000     2.308000000
H    -5.957000000     5.616000000     2.791000000
H    -6.920000000     5.207000000     1.696000000
O    -4.682000000     6.401000000    -4.555000000
H    -5.062000000     7.237000000    -4.826000000
H    -3.788000000     6.423000000    -4.897000000
O    -7.138000000     5.286000000    -4.269000000
H    -6.232000000     5.541000000    -4.443000000
H    -7.394000000     5.814000000    -3.513000000
O    -5.897000000     4.046000000    -1.536000000
H    -5.165000000     3.749000000    -0.995000000
H    -5.844000000     3.508000000    -2.326000000
O    -5.203000000     7.367000000     4.290000000
H    -5.492000000     7.889000000     3.541000000
H    -4.583000000     6.740000000     3.918000000
O    -6.409000000     2.670000000    -4.020000000
H    -6.070000000     2.341000000    -4.853000000
H    -6.818000000     3.506000000    -4.242000000
O    -2.124000000     3.509000000    -4.996000000
H    -2.036000000     2.879000000    -4.281000000
H    -1.646000000     4.282000000    -4.695000000
O    -7.508000000     3.828000000     0.576000000
H    -8.330000000     4.255000000     0.334000000
H    -6.939000000     3.955000000    -0.182000000
O     0.659000000     8.624000000    -1.670000000
H    -0.219000000     8.848000000    -1.363000000
H     0.729000000     7.680000000    -1.527000000
O    -2.141000000     5.451000000    -2.982000000
H    -1.974000000     5.185000000    -2.078000000
H    -3.027000000     5.811000000    -2.966000000
O    -4.671000000     3.333000000     2.312000000
H    -4.807000000     2.391000000     2.206000000
H    -4.513000000     3.653000000     1.424000000
O    -2.140000000     1.305000000    -2.932000000
H    -2.956000000     0.943000000    -2.585000000
H    -1.523000000     1.247000000    -2.203000000
O    -3.014000000     6.881000000     0.417000000
H    -2.553000000     6.079000000     0.169000000
H    -2.442000000     7.588000000     0.119000000
