215
-1461.19287
C    -3.334000000     0.359000000     4.301000000
H    -2.536000000     0.577000000     5.006000000
C    -3.096000000    -0.728000000     3.432000000
C    -3.970000000    -0.912000000     2.368000000
H    -3.722000000    -1.715000000     1.678000000
C    -1.818000000    -1.574000000     3.359000000
O    -1.049000000    -1.455000000     4.562000000
H    -1.179000000    -1.084000000     2.610000000
O    -2.221000000    -2.904000000     2.962000000
C    -1.429000000    -3.640000000     2.127000000
C    -1.877000000    -4.070000000     0.872000000
H    -2.918000000    -3.839000000     0.662000000
C    -0.997000000    -4.666000000    -0.038000000
O    -1.373000000    -4.855000000    -1.343000000
C     0.316000000    -4.971000000     0.330000000
C     1.221000000    -5.485000000    -0.728000000
H     2.004000000    -6.083000000    -0.257000000
C     1.870000000    -4.256000000    -1.576000000
C     3.123000000    -3.754000000    -1.117000000
H     3.744000000    -4.123000000    -0.304000000
H     0.584000000    -6.109000000    -1.358000000
C     0.747000000    -4.514000000     1.508000000
H     1.786000000    -4.634000000     1.806000000
C    -0.110000000    -3.923000000     2.464000000
C     0.469000000    -3.731000000     3.925000000
H     1.082000000    -4.581000000     4.231000000
H    -0.348000000    -3.694000000     4.649000000
C     1.104000000    -2.339000000     4.098000000
C     2.458000000    -2.163000000     3.868000000
H     3.092000000    -3.024000000     3.671000000
C     0.278000000    -1.249000000     4.409000000
C     0.828000000     0.007000000     4.651000000
H     0.171000000     0.857000000     4.814000000
C     2.135000000     0.199000000     4.313000000
O     2.569000000     1.537000000     4.234000000
C     2.520000000     2.133000000     2.961000000
C     2.018000000     3.534000000     2.923000000
C     2.617000000     4.527000000     2.159000000
H     3.566000000     4.335000000     1.665000000
C     0.682000000     3.810000000     3.310000000
H     0.105000000     2.960000000     3.664000000
O     3.876000000     2.054000000     2.527000000
H     1.793000000     1.617000000     2.317000000
C     2.977000000    -0.856000000     3.963000000
C     4.454000000    -0.599000000     3.490000000
H     5.074000000    -1.470000000     3.714000000
H     4.839000000     0.161000000     4.173000000
C     4.553000000    -0.330000000     1.966000000
C     4.817000000    -1.233000000     1.024000000
H     5.006000000    -2.272000000     1.283000000
C     4.217000000     1.019000000     1.614000000
C     4.367000000     1.417000000     0.254000000
H     4.216000000     2.433000000    -0.103000000
C     4.637000000     0.439000000    -0.755000000
O     4.471000000     0.825000000    -2.091000000
C     3.207000000     0.427000000    -2.684000000
C     2.444000000     1.446000000    -3.456000000
C     2.621000000     2.817000000    -3.113000000
H     3.341000000     3.109000000    -2.353000000
C     1.553000000     1.139000000    -4.466000000
H     1.420000000     0.111000000    -4.793000000
O     3.370000000    -0.796000000    -3.423000000
H     2.602000000     0.083000000    -1.833000000
C     4.832000000    -0.902000000    -0.346000000
C     5.037000000    -2.011000000    -1.316000000
H     5.720000000    -2.810000000    -1.021000000
H     5.483000000    -1.658000000    -2.248000000
C     3.695000000    -2.581000000    -1.747000000
C     2.984000000    -2.034000000    -2.797000000
C     1.840000000    -2.621000000    -3.306000000
H     1.393000000    -2.232000000    -4.217000000
C     1.233000000    -3.688000000    -2.642000000
O     0.005000000    -4.116000000    -3.070000000
C    -1.224000000    -3.816000000    -2.296000000
H    -1.068000000    -2.918000000    -1.680000000
C    -2.430000000    -3.500000000    -3.217000000
C    -3.718000000    -3.482000000    -2.643000000
H    -3.886000000    -3.826000000    -1.626000000
C    -2.234000000    -3.024000000    -4.463000000
H    -1.243000000    -3.036000000    -4.908000000
C    -3.313000000    -2.409000000    -5.166000000
O    -3.187000000    -1.701000000    -6.350000000
C    -4.566000000    -2.407000000    -4.550000000
H    -5.347000000    -1.881000000    -5.094000000
C    -4.796000000    -3.038000000    -3.354000000
O    -6.080000000    -2.922000000    -2.833000000
C    -6.257000000    -2.733000000    -1.531000000
C    -5.992000000    -1.515000000    -0.947000000
H    -5.536000000    -0.749000000    -1.569000000
C    -6.721000000    -3.779000000    -0.833000000
H    -6.992000000    -4.707000000    -1.330000000
C    -6.917000000    -3.658000000     0.546000000
H    -7.170000000    -4.552000000     1.111000000
C    -6.661000000    -2.445000000     1.170000000
H    -6.672000000    -2.372000000     2.255000000
C    -6.164000000    -1.387000000     0.417000000
O    -5.805000000    -0.212000000     0.952000000
C    -5.135000000    -0.159000000     2.156000000
C    -5.277000000     0.930000000     3.036000000
H    -5.935000000     1.742000000     2.738000000
C    -4.458000000     1.166000000     4.128000000
O    -4.701000000     2.282000000     4.916000000
C    -3.641000000     3.093000000     5.233000000
C    -2.929000000     3.691000000     4.214000000
H    -3.122000000     3.405000000     3.183000000
C    -3.281000000     3.322000000     6.537000000
H    -3.787000000     2.787000000     7.337000000
C    -2.214000000     4.163000000     6.831000000
H    -1.910000000     4.388000000     7.850000000
C    -1.484000000     4.790000000     5.807000000
H    -0.660000000     5.483000000     5.956000000
C    -1.879000000     4.541000000     4.515000000
O    -1.283000000     5.224000000     3.486000000
C     0.101000000     5.087000000     3.259000000
C     0.785000000     6.122000000     2.602000000
H     0.376000000     7.129000000     2.614000000
C     1.949000000     5.761000000     1.943000000
O     2.610000000     6.724000000     1.234000000
C     3.161000000     6.324000000     0.010000000
C     2.301000000     5.838000000    -1.004000000
H     1.233000000     5.781000000    -0.808000000
C     4.455000000     6.483000000    -0.365000000
H     5.157000000     6.723000000     0.428000000
C     4.881000000     6.236000000    -1.646000000
H     5.899000000     6.458000000    -1.954000000
C     4.021000000     5.759000000    -2.631000000
H     4.350000000     5.692000000    -3.665000000
C     2.711000000     5.532000000    -2.291000000
O     1.852000000     5.051000000    -3.257000000
C     1.857000000     3.790000000    -3.765000000
C     0.904000000     3.460000000    -4.749000000
H     0.297000000     4.245000000    -5.191000000
C     0.882000000     2.114000000    -5.195000000
O     0.066000000     1.872000000    -6.305000000
C    -0.342000000     0.624000000    -6.656000000
C     0.639000000    -0.292000000    -7.092000000
H     1.693000000    -0.035000000    -7.164000000
C     0.233000000    -1.529000000    -7.585000000
H     0.918000000    -2.223000000    -8.064000000
C    -1.067000000    -1.957000000    -7.375000000
H    -1.358000000    -2.998000000    -7.481000000
C    -1.960000000    -1.139000000    -6.691000000
C    -1.682000000     0.154000000    -6.543000000
H    -2.402000000     0.808000000    -6.057000000
C    -0.274000000     2.238000000    -0.389000000
H    -0.127000000     3.309000000    -0.498000000
C     0.874000000     1.504000000    -0.106000000
H     1.847000000     1.987000000    -0.145000000
C     0.778000000     0.178000000     0.130000000
H     1.671000000    -0.434000000     0.352000000
C    -0.431000000    -0.493000000     0.094000000
H    -0.524000000    -1.551000000     0.322000000
C    -1.640000000     0.222000000    -0.204000000
H    -2.614000000    -0.261000000    -0.213000000
C    -1.555000000     1.611000000    -0.437000000
C    -2.824000000     2.385000000    -0.785000000
O    -3.872000000     1.871000000    -1.132000000
O    -2.694000000     3.614000000    -0.743000000
O    -7.715000000     4.685000000    -1.867000000
H    -8.071000000     5.292000000    -1.218000000
H    -7.264000000     4.018000000    -1.349000000
O     0.099000000     9.144000000     0.677000000
H     0.904000000     8.820000000     0.273000000
H    -0.503000000     8.401000000     0.642000000
O    -7.555000000     3.014000000    -4.353000000
H    -6.896000000     3.384000000    -4.940000000
H    -7.339000000     3.372000000    -3.493000000
O    -3.667000000     9.124000000     1.414000000
H    -4.566000000     9.451000000     1.447000000
H    -3.700000000     8.287000000     1.877000000
O    -9.245000000     0.656000000    -2.693000000
H    -9.344000000     0.914000000    -1.777000000
H    -8.816000000     1.404000000    -3.108000000
O    -6.522000000     0.101000000    -4.996000000
H    -6.917000000     0.951000000    -4.802000000
H    -5.686000000     0.113000000    -4.531000000
O    -5.360000000     4.577000000    -5.740000000
H    -5.594000000     5.495000000    -5.607000000
H    -5.319000000     4.475000000    -6.691000000
O    -6.243000000     4.716000000     3.734000000
H    -5.937000000     5.028000000     2.883000000
H    -7.027000000     4.204000000     3.535000000
O    -4.358000000     4.745000000    -2.441000000
H    -3.789000000     4.299000000    -1.813000000
H    -4.526000000     4.090000000    -3.119000000
O    -6.952000000     6.678000000    -4.372000000
H    -6.314000000     6.820000000    -3.672000000
H    -7.534000000     5.999000000    -4.032000000
O    -4.765000000     1.624000000    -3.660000000
H    -4.568000000     1.675000000    -2.725000000
H    -3.907000000     1.565000000    -4.082000000
O    -4.538000000     7.112000000     2.860000000
H    -4.732000000     7.456000000     3.732000000
H    -4.421000000     6.172000000     2.994000000
O     0.287000000     7.847000000    -3.501000000
H     0.468000000     7.230000000    -4.210000000
H    -0.076000000     7.306000000    -2.800000000
O    -6.439000000     2.512000000    -0.513000000
H    -6.817000000     2.063000000     0.243000000
H    -5.612000000     2.058000000    -0.673000000
O    -1.343000000     5.868000000    -2.308000000
H    -1.646000000     5.011000000    -2.008000000
H    -2.003000000     6.147000000    -2.943000000
O    -4.883000000     4.368000000     1.231000000
H    -5.544000000     3.913000000     0.710000000
H    -4.108000000     4.389000000     0.670000000
O    -2.859000000     3.133000000    -5.241000000
H    -2.396000000     3.451000000    -6.016000000
H    -3.661000000     3.656000000    -5.211000000
O    -0.974000000     6.718000000     0.179000000
H    -1.305000000     6.563000000    -0.706000000
H    -1.224000000     5.935000000     0.669000000
O    -4.633000000     7.466000000    -2.731000000
H    -3.863000000     7.927000000    -2.397000000
H    -4.542000000     6.574000000    -2.396000000
