215
-1456.63327
C    -3.430000000    -0.347000000     4.257000000
H    -2.565000000     0.068000000     4.768000000
C    -3.309000000    -1.575000000     3.563000000
C    -4.331000000    -2.045000000     2.739000000
H    -4.212000000    -2.852000000     2.021000000
C    -1.892000000    -2.235000000     3.391000000
O    -1.058000000    -1.935000000     4.536000000
H    -1.391000000    -1.759000000     2.535000000
O    -2.052000000    -3.651000000     3.121000000
C    -1.094000000    -4.128000000     2.207000000
C    -1.485000000    -4.373000000     0.901000000
H    -2.531000000    -4.157000000     0.698000000
C    -0.642000000    -4.814000000    -0.121000000
O    -1.156000000    -4.688000000    -1.395000000
C     0.680000000    -5.004000000     0.226000000
C     1.681000000    -5.240000000    -0.893000000
H     2.503000000    -5.788000000    -0.429000000
C     2.165000000    -3.986000000    -1.564000000
C     3.397000000    -3.402000000    -1.204000000
H     3.942000000    -3.900000000    -0.406000000
H     1.285000000    -5.986000000    -1.585000000
C     1.168000000    -4.785000000     1.535000000
H     2.226000000    -4.927000000     1.737000000
C     0.271000000    -4.365000000     2.512000000
C     0.831000000    -4.041000000     3.895000000
H     1.619000000    -4.732000000     4.204000000
H    -0.006000000    -4.185000000     4.581000000
C     1.218000000    -2.554000000     4.024000000
C     2.492000000    -2.100000000     3.684000000
H     3.298000000    -2.761000000     3.379000000
C     0.237000000    -1.606000000     4.269000000
C     0.508000000    -0.260000000     4.368000000
H    -0.261000000     0.483000000     4.561000000
C     1.795000000     0.193000000     4.232000000
O     1.914000000     1.545000000     4.255000000
C     1.891000000     2.110000000     2.964000000
C     1.235000000     3.532000000     2.853000000
C     1.384000000     4.290000000     1.709000000
H     2.204000000     4.138000000     1.011000000
C     0.252000000     3.855000000     3.746000000
H    -0.024000000     3.343000000     4.664000000
O     3.279000000     2.296000000     2.470000000
H     1.371000000     1.357000000     2.353000000
C     2.767000000    -0.739000000     3.883000000
C     4.231000000    -0.340000000     3.568000000
H     4.989000000    -1.120000000     3.667000000
H     4.465000000     0.558000000     4.143000000
C     4.342000000     0.048000000     2.112000000
C     4.776000000    -0.858000000     1.145000000
H     5.339000000    -1.726000000     1.478000000
C     3.845000000     1.297000000     1.716000000
C     3.880000000     1.582000000     0.392000000
H     3.520000000     2.572000000     0.124000000
C     4.204000000     0.659000000    -0.609000000
O     4.170000000     1.100000000    -1.912000000
C     3.061000000     0.672000000    -2.790000000
C     2.733000000     1.805000000    -3.748000000
C     2.894000000     3.160000000    -3.396000000
H     3.242000000     3.404000000    -2.396000000
C     2.194000000     1.491000000    -5.014000000
H     1.851000000     0.498000000    -5.293000000
O     3.467000000    -0.535000000    -3.450000000
H     2.201000000     0.377000000    -2.170000000
C     4.705000000    -0.558000000    -0.233000000
C     5.139000000    -1.608000000    -1.287000000
H     5.690000000    -2.432000000    -0.828000000
H     5.797000000    -1.156000000    -2.032000000
C     3.907000000    -2.275000000    -1.831000000
C     3.172000000    -1.706000000    -2.826000000
C     2.011000000    -2.337000000    -3.255000000
H     1.486000000    -1.938000000    -4.120000000
C     1.469000000    -3.407000000    -2.594000000
O     0.275000000    -3.892000000    -3.022000000
C    -0.793000000    -3.503000000    -2.186000000
H    -0.422000000    -2.718000000    -1.511000000
C    -1.984000000    -2.809000000    -2.979000000
C    -3.302000000    -2.733000000    -2.399000000
H    -3.437000000    -2.941000000    -1.341000000
C    -1.771000000    -2.174000000    -4.171000000
H    -0.819000000    -2.267000000    -4.689000000
C    -2.675000000    -1.379000000    -4.858000000
O    -2.442000000    -0.735000000    -6.051000000
C    -3.993000000    -1.348000000    -4.332000000
H    -4.903000000    -0.837000000    -4.636000000
C    -4.300000000    -2.023000000    -3.138000000
O    -5.545000000    -1.797000000    -2.507000000
C    -5.962000000    -2.487000000    -1.395000000
C    -6.099000000    -1.798000000    -0.227000000
H    -5.878000000    -0.734000000    -0.209000000
C    -6.230000000    -3.910000000    -1.481000000
H    -6.172000000    -4.399000000    -2.450000000
C    -6.588000000    -4.544000000    -0.348000000
H    -6.753000000    -5.614000000    -0.444000000
C    -6.783000000    -3.867000000     0.823000000
H    -7.249000000    -4.346000000     1.681000000
C    -6.529000000    -2.492000000     0.928000000
O    -6.620000000    -1.819000000     2.060000000
C    -5.569000000    -1.388000000     2.837000000
C    -5.723000000    -0.280000000     3.672000000
H    -6.658000000     0.250000000     3.833000000
C    -4.622000000     0.358000000     4.279000000
O    -4.767000000     1.627000000     4.988000000
C    -3.725000000     2.401000000     5.463000000
C    -3.209000000     3.427000000     4.657000000
H    -3.520000000     3.534000000     3.621000000
C    -3.433000000     2.438000000     6.823000000
H    -3.989000000     1.699000000     7.396000000
C    -2.423000000     3.278000000     7.408000000
H    -2.118000000     3.198000000     8.448000000
C    -1.800000000     4.170000000     6.529000000
H    -1.053000000     4.794000000     7.013000000
C    -2.196000000     4.229000000     5.186000000
O    -1.615000000     5.183000000     4.359000000
C    -0.667000000     4.875000000     3.378000000
C    -0.459000000     5.648000000     2.240000000
H    -1.120000000     6.493000000     2.062000000
C     0.592000000     5.339000000     1.410000000
O     0.764000000     6.204000000     0.360000000
C     1.908000000     6.243000000    -0.424000000
C     1.763000000     5.982000000    -1.798000000
H     0.800000000     5.855000000    -2.286000000
C     3.098000000     6.638000000     0.093000000
H     3.217000000     6.958000000     1.125000000
C     4.238000000     6.610000000    -0.746000000
H     5.220000000     6.903000000    -0.385000000
C     4.148000000     6.280000000    -2.026000000
H     5.076000000     6.251000000    -2.590000000
C     2.890000000     5.968000000    -2.608000000
O     2.797000000     5.533000000    -3.924000000
C     2.534000000     4.205000000    -4.287000000
C     2.038000000     3.923000000    -5.521000000
H     1.759000000     4.744000000    -6.177000000
C     1.853000000     2.591000000    -5.900000000
O     1.163000000     2.330000000    -7.082000000
C     0.535000000     1.121000000    -7.226000000
C     1.165000000     0.201000000    -8.051000000
H     2.099000000     0.396000000    -8.572000000
C     0.533000000    -1.019000000    -8.295000000
H     0.942000000    -1.770000000    -8.967000000
C    -0.603000000    -1.332000000    -7.594000000
H    -0.901000000    -2.376000000    -7.538000000
C    -1.177000000    -0.507000000    -6.650000000
C    -0.686000000     0.801000000    -6.570000000
H    -1.060000000     1.586000000    -5.919000000
C    -0.418000000     1.606000000    -0.498000000
H    -0.138000000     2.593000000    -0.860000000
C     0.472000000     0.625000000    -0.064000000
H     1.536000000     0.819000000     0.043000000
C    -0.084000000    -0.555000000     0.323000000
H     0.627000000    -1.284000000     0.714000000
C    -1.452000000    -0.810000000     0.239000000
H    -1.827000000    -1.799000000     0.491000000
C    -2.336000000     0.196000000    -0.290000000
H    -3.419000000     0.118000000    -0.330000000
C    -1.774000000     1.433000000    -0.599000000
C    -2.689000000     2.613000000    -1.013000000
O    -3.900000000     2.569000000    -0.897000000
O    -2.167000000     3.660000000    -1.411000000
O    -7.815000000     4.854000000    -1.062000000
H    -7.991000000     4.637000000    -1.977000000
H    -6.884000000     5.076000000    -1.042000000
O    -7.782000000     3.340000000    -3.400000000
H    -7.822000000     3.222000000    -4.349000000
H    -6.854000000     3.252000000    -3.186000000
O    -8.111000000     5.633000000     1.457000000
H    -7.546000000     5.169000000     2.075000000
H    -8.055000000     5.122000000     0.650000000
O    -2.490000000     7.997000000    -3.607000000
H    -1.588000000     8.182000000    -3.868000000
H    -2.406000000     7.451000000    -2.826000000
O    -3.237000000     8.122000000     2.035000000
H    -3.160000000     7.175000000     2.155000000
H    -3.849000000     8.222000000     1.306000000
O    -7.702000000     0.174000000    -2.092000000
H    -8.491000000     0.471000000    -2.546000000
H    -7.020000000     0.786000000    -2.372000000
O    -4.077000000     5.334000000    -3.902000000
H    -4.539000000     4.966000000    -4.656000000
H    -3.197000000     5.522000000    -4.228000000
O    -6.516000000     3.977000000     3.144000000
H    -5.967000000     3.663000000     2.425000000
H    -6.623000000     3.216000000     3.713000000
O    -7.696000000     1.462000000     1.462000000
H    -8.304000000     0.830000000     1.077000000
H    -7.910000000     1.463000000     2.395000000
O    -5.030000000     4.886000000    -1.493000000
H    -4.448000000     4.152000000    -1.297000000
H    -4.896000000     5.055000000    -2.426000000
O    -5.478000000     2.171000000    -2.914000000
H    -4.981000000     2.264000000    -2.101000000
H    -4.811000000     2.077000000    -3.593000000
O    -4.995000000     4.007000000    -6.765000000
H    -5.188000000     3.629000000    -7.623000000
H    -4.909000000     4.946000000    -6.931000000
O    -5.485000000     3.102000000     1.022000000
H    -6.175000000     2.441000000     0.977000000
H    -4.843000000     2.823000000     0.370000000
O    -4.468000000     8.019000000    -0.286000000
H    -4.297000000     8.521000000    -1.083000000
H    -4.607000000     7.123000000    -0.593000000
O    -1.395000000     3.319000000    -4.021000000
H    -1.532000000     3.598000000    -3.115000000
H    -2.087000000     2.678000000    -4.181000000
O    -3.540000000     5.238000000     1.020000000
H    -4.411000000     4.894000000     0.824000000
H    -2.939000000     4.626000000     0.595000000
O    -3.741000000     1.773000000    -5.205000000
H    -3.517000000     1.069000000    -5.814000000
H    -3.975000000     2.510000000    -5.768000000
O    -1.942000000     6.306000000    -1.495000000
H    -1.867000000     5.355000000    -1.414000000
H    -2.189000000     6.602000000    -0.619000000
O    -0.617000000     5.662000000    -5.106000000
H    -0.817000000     4.820000000    -4.697000000
H     0.037000000     6.058000000    -4.530000000
