215
-1463.96414
C    -3.677000000     0.041000000     4.037000000
H    -3.193000000     0.215000000     4.994000000
C    -3.074000000    -0.945000000     3.226000000
C    -3.693000000    -1.226000000     2.000000000
H    -3.199000000    -1.987000000     1.402000000
C    -1.748000000    -1.511000000     3.582000000
O    -1.167000000    -1.079000000     4.858000000
H    -1.202000000    -1.093000000     2.723000000
O    -1.737000000    -2.973000000     3.547000000
C    -0.773000000    -3.534000000     2.740000000
C    -1.085000000    -4.065000000     1.475000000
H    -2.129000000    -4.125000000     1.177000000
C    -0.046000000    -4.594000000     0.680000000
O    -0.479000000    -4.975000000    -0.558000000
C     1.295000000    -4.620000000     1.150000000
C     2.443000000    -5.149000000     0.387000000
H     3.272000000    -5.600000000     0.936000000
C     2.974000000    -4.097000000    -0.579000000
C     4.085000000    -3.306000000    -0.216000000
H     4.406000000    -3.394000000     0.819000000
H     2.010000000    -5.999000000    -0.145000000
C     1.606000000    -4.120000000     2.416000000
H     2.641000000    -4.085000000     2.746000000
C     0.620000000    -3.579000000     3.209000000
C     0.944000000    -2.988000000     4.564000000
H     1.768000000    -3.487000000     5.077000000
H     0.131000000    -3.182000000     5.266000000
C     1.201000000    -1.514000000     4.580000000
C     2.491000000    -1.007000000     4.387000000
H     3.305000000    -1.713000000     4.247000000
C     0.132000000    -0.626000000     4.764000000
C     0.338000000     0.705000000     4.618000000
H    -0.513000000     1.382000000     4.600000000
C     1.615000000     1.227000000     4.409000000
O     1.646000000     2.612000000     4.154000000
C     1.598000000     2.963000000     2.750000000
C     0.739000000     4.188000000     2.545000000
C     0.900000000     5.074000000     1.468000000
H     1.758000000     5.013000000     0.803000000
C    -0.479000000     4.344000000     3.255000000
H    -0.645000000     3.590000000     4.019000000
O     2.938000000     3.195000000     2.223000000
H     1.121000000     2.149000000     2.185000000
C     2.737000000     0.382000000     4.313000000
C     4.111000000     1.002000000     3.872000000
H     4.928000000     0.322000000     4.122000000
H     4.243000000     1.939000000     4.416000000
C     4.208000000     1.124000000     2.364000000
C     4.694000000     0.014000000     1.704000000
H     4.958000000    -0.889000000     2.248000000
C     3.694000000     2.175000000     1.604000000
C     3.902000000     2.301000000     0.280000000
H     3.410000000     3.124000000    -0.232000000
C     4.487000000     1.236000000    -0.405000000
O     4.461000000     1.287000000    -1.800000000
C     3.519000000     0.427000000    -2.508000000
C     2.681000000     1.249000000    -3.544000000
C     2.176000000     2.535000000    -3.238000000
H     2.430000000     3.046000000    -2.313000000
C     2.335000000     0.681000000    -4.756000000
H     2.751000000    -0.303000000    -4.956000000
O     4.076000000    -0.866000000    -2.944000000
H     2.772000000     0.227000000    -1.725000000
C     4.794000000     0.054000000     0.300000000
C     5.403000000    -1.117000000    -0.468000000
H     6.100000000    -1.661000000     0.173000000
H     6.053000000    -0.732000000    -1.256000000
C     4.427000000    -2.178000000    -0.954000000
C     3.749000000    -1.968000000    -2.158000000
C     2.774000000    -2.850000000    -2.614000000
H     2.148000000    -2.666000000    -3.484000000
C     2.376000000    -3.914000000    -1.824000000
O     1.150000000    -4.557000000    -2.148000000
C    -0.055000000    -4.118000000    -1.616000000
H     0.130000000    -3.150000000    -1.127000000
C    -1.103000000    -4.036000000    -2.686000000
C    -2.492000000    -4.129000000    -2.362000000
H    -2.740000000    -4.176000000    -1.304000000
C    -0.773000000    -3.999000000    -4.049000000
H     0.270000000    -4.063000000    -4.348000000
C    -1.749000000    -3.828000000    -5.009000000
O    -1.413000000    -3.500000000    -6.343000000
C    -3.097000000    -3.815000000    -4.658000000
H    -3.779000000    -3.743000000    -5.501000000
C    -3.495000000    -4.013000000    -3.378000000
O    -4.866000000    -3.976000000    -3.089000000
C    -5.341000000    -3.553000000    -1.861000000
C    -5.085000000    -2.252000000    -1.419000000
H    -4.425000000    -1.655000000    -2.043000000
C    -6.295000000    -4.401000000    -1.292000000
H    -6.499000000    -5.360000000    -1.760000000
C    -6.975000000    -3.927000000    -0.218000000
H    -7.797000000    -4.481000000     0.226000000
C    -6.635000000    -2.702000000     0.377000000
H    -7.165000000    -2.334000000     1.252000000
C    -5.696000000    -1.903000000    -0.233000000
O    -5.274000000    -0.722000000     0.217000000
C    -4.799000000    -0.478000000     1.541000000
C    -5.318000000     0.540000000     2.373000000
H    -6.228000000     1.096000000     2.161000000
C    -4.815000000     0.692000000     3.638000000
O    -5.372000000     1.705000000     4.379000000
C    -4.406000000     2.599000000     4.901000000
C    -3.904000000     3.521000000     4.000000000
H    -4.115000000     3.494000000     2.934000000
C    -4.153000000     2.718000000     6.220000000
H    -4.665000000     2.086000000     6.941000000
C    -3.408000000     3.729000000     6.818000000
H    -3.367000000     3.892000000     7.892000000
C    -2.843000000     4.676000000     5.942000000
H    -2.168000000     5.452000000     6.292000000
C    -3.079000000     4.548000000     4.537000000
O    -2.565000000     5.526000000     3.726000000
C    -1.362000000     5.394000000     2.978000000
C    -1.087000000     6.331000000     2.004000000
H    -1.751000000     7.156000000     1.758000000
C     0.034000000     6.140000000     1.230000000
O     0.344000000     7.012000000     0.187000000
C     0.900000000     6.713000000    -0.979000000
C     0.499000000     5.606000000    -1.735000000
H    -0.344000000     5.019000000    -1.379000000
C     1.865000000     7.620000000    -1.428000000
H     2.177000000     8.574000000    -1.009000000
C     2.514000000     7.260000000    -2.606000000
H     3.209000000     7.981000000    -3.030000000
C     2.159000000     6.130000000    -3.383000000
H     2.687000000     5.854000000    -4.292000000
C     1.109000000     5.298000000    -2.946000000
O     0.580000000     4.352000000    -3.803000000
C     1.286000000     3.194000000    -4.182000000
C     0.892000000     2.554000000    -5.288000000
H     0.143000000     2.931000000    -5.981000000
C     1.382000000     1.301000000    -5.534000000
O     0.852000000     0.696000000    -6.687000000
C     0.839000000    -0.654000000    -6.938000000
C     1.770000000    -1.144000000    -7.860000000
H     2.439000000    -0.551000000    -8.478000000
C     1.621000000    -2.514000000    -8.134000000
H     2.287000000    -2.970000000    -8.863000000
C     0.630000000    -3.348000000    -7.578000000
H     0.508000000    -4.380000000    -7.899000000
C    -0.311000000    -2.710000000    -6.769000000
C    -0.138000000    -1.400000000    -6.380000000
H    -0.887000000    -0.974000000    -5.717000000
C    -1.036000000     1.534000000    -0.216000000
H    -1.313000000     2.305000000     0.499000000
C    -0.264000000     0.475000000     0.341000000
H    -0.043000000     0.468000000     1.405000000
C     0.153000000    -0.540000000    -0.487000000
H     0.748000000    -1.405000000    -0.091000000
C    -0.319000000    -0.665000000    -1.773000000
H     0.051000000    -1.428000000    -2.453000000
C    -1.069000000     0.413000000    -2.335000000
H    -1.244000000     0.426000000    -3.408000000
C    -1.502000000     1.500000000    -1.546000000
C    -2.559000000     2.503000000    -2.135000000
O    -2.954000000     2.335000000    -3.296000000
O    -3.001000000     3.313000000    -1.390000000
O    -7.619000000     3.340000000    -5.283000000
H    -7.738000000     2.392000000    -5.340000000
H    -6.748000000     3.449000000    -4.901000000
O    -5.432000000     4.263000000    -7.445000000
H    -4.475000000     4.282000000    -7.447000000
H    -5.653000000     3.332000000    -7.442000000
O    -1.507000000     8.417000000    -1.628000000
H    -2.266000000     8.939000000    -1.370000000
H    -1.775000000     7.511000000    -1.476000000
O    -4.429000000    -1.433000000    -6.426000000
H    -3.958000000    -0.800000000    -5.884000000
H    -5.218000000    -1.638000000    -5.924000000
O    -8.200000000     0.762000000    -1.187000000
H    -8.301000000     0.622000000    -2.128000000
H    -7.267000000     0.942000000    -1.070000000
O    -2.184000000     4.334000000    -4.782000000
H    -2.489000000     3.505000000    -4.413000000
H    -1.492000000     4.621000000    -4.186000000
O    -6.160000000     8.200000000    -3.092000000
H    -5.307000000     7.775000000    -3.177000000
H    -6.678000000     7.592000000    -2.564000000
O    -3.505000000     0.718000000    -5.216000000
H    -2.796000000     0.994000000    -5.796000000
H    -3.363000000     1.215000000    -4.411000000
O    -5.035000000     5.990000000     0.361000000
H    -5.410000000     6.329000000     1.174000000
H    -4.841000000     5.072000000     0.550000000
O    -2.604000000     7.572000000    -5.725000000
H    -1.930000000     7.377000000    -6.375000000
H    -3.284000000     8.032000000    -6.216000000
O    -7.920000000    -0.143000000    -3.759000000
H    -7.347000000    -0.801000000    -4.152000000
H    -8.598000000     0.008000000    -4.419000000
O    -3.772000000     7.087000000    -3.396000000
H    -3.336000000     7.155000000    -4.246000000
H    -3.192000000     6.534000000    -2.873000000
O    -5.622000000     1.515000000    -2.180000000
H    -5.774000000     0.869000000    -2.870000000
H    -4.805000000     1.945000000    -2.431000000
O    -5.013000000     3.904000000    -4.290000000
H    -4.618000000     4.624000000    -4.783000000
H    -4.268000000     3.425000000    -3.928000000
O    -4.943000000     3.156000000     0.425000000
H    -5.236000000     2.325000000     0.052000000
H    -4.213000000     3.425000000    -0.132000000
O    -5.624000000     1.526000000    -6.989000000
H    -5.100000000     1.027000000    -6.361000000
H    -6.065000000     0.859000000    -7.515000000
O    -2.654000000     5.997000000    -1.257000000
H    -3.484000000     6.206000000    -0.829000000
H    -2.566000000     5.049000000    -1.160000000
O    -6.649000000     5.443000000    -2.352000000
H    -6.158000000     4.970000000    -3.024000000
H    -6.156000000     5.293000000    -1.546000000
O    -2.575000000     4.898000000    -7.449000000
H    -1.910000000     5.575000000    -7.577000000
H    -2.459000000     4.617000000    -6.541000000
