215
-1456.88213
C    -4.579000000    -0.003000000     2.223000000
H    -4.102000000     0.611000000     2.982000000
C    -4.109000000    -1.286000000     1.911000000
C    -4.753000000    -1.945000000     0.813000000
H    -4.366000000    -2.905000000     0.480000000
C    -2.913000000    -1.956000000     2.485000000
O    -2.737000000    -1.570000000     3.886000000
H    -2.088000000    -1.551000000     1.881000000
O    -2.873000000    -3.386000000     2.300000000
C    -1.677000000    -3.903000000     1.889000000
C    -1.569000000    -4.415000000     0.621000000
H    -2.451000000    -4.478000000    -0.011000000
C    -0.285000000    -4.734000000     0.081000000
O    -0.136000000    -5.009000000    -1.273000000
C     0.822000000    -4.772000000     0.926000000
C     2.208000000    -5.069000000     0.514000000
H     2.846000000    -5.491000000     1.294000000
C     2.900000000    -3.840000000    -0.127000000
C     3.780000000    -3.031000000     0.595000000
H     4.081000000    -3.329000000     1.596000000
H     2.152000000    -5.853000000    -0.244000000
C     0.685000000    -4.415000000     2.261000000
H     1.598000000    -4.469000000     2.849000000
C    -0.530000000    -3.925000000     2.701000000
C    -0.637000000    -3.440000000     4.151000000
H     0.181000000    -3.967000000     4.649000000
H    -1.587000000    -3.767000000     4.580000000
C    -0.385000000    -1.963000000     4.311000000
C     0.901000000    -1.500000000     4.511000000
H     1.704000000    -2.230000000     4.568000000
C    -1.477000000    -1.123000000     4.270000000
C    -1.229000000     0.226000000     4.413000000
H    -2.081000000     0.890000000     4.295000000
C     0.086000000     0.720000000     4.617000000
O     0.226000000     2.113000000     4.647000000
C     0.813000000     2.765000000     3.511000000
C     0.026000000     4.034000000     3.201000000
C     0.622000000     4.987000000     2.406000000
H     1.655000000     4.841000000     2.102000000
C    -1.303000000     4.076000000     3.497000000
H    -1.844000000     3.327000000     4.069000000
O     2.220000000     2.884000000     3.676000000
H     0.524000000     2.205000000     2.609000000
C     1.174000000    -0.160000000     4.760000000
C     2.647000000     0.368000000     4.976000000
H     3.200000000    -0.446000000     5.450000000
H     2.716000000     1.166000000     5.718000000
C     3.278000000     0.757000000     3.650000000
C     4.121000000    -0.223000000     3.073000000
H     4.422000000    -1.121000000     3.605000000
C     3.024000000     1.965000000     3.043000000
C     3.603000000     2.156000000     1.814000000
H     3.407000000     3.139000000     1.395000000
C     4.365000000     1.135000000     1.176000000
O     4.764000000     1.409000000    -0.123000000
C     4.069000000     0.676000000    -1.214000000
C     3.545000000     1.579000000    -2.323000000
C     3.181000000     2.846000000    -1.948000000
H     3.106000000     3.141000000    -0.904000000
C     3.420000000     1.195000000    -3.668000000
H     3.625000000     0.170000000    -3.967000000
O     4.685000000    -0.514000000    -1.756000000
H     3.129000000     0.382000000    -0.724000000
C     4.645000000    -0.089000000     1.795000000
C     5.362000000    -1.168000000     1.064000000
H     5.744000000    -1.904000000     1.774000000
H     6.190000000    -0.718000000     0.512000000
C     4.338000000    -1.900000000     0.133000000
C     4.059000000    -1.590000000    -1.208000000
C     3.392000000    -2.483000000    -2.011000000
H     3.375000000    -2.383000000    -3.093000000
C     2.728000000    -3.543000000    -1.501000000
O     1.819000000    -4.319000000    -2.223000000
C     0.457000000    -3.940000000    -2.076000000
H     0.471000000    -2.984000000    -1.531000000
C    -0.203000000    -3.710000000    -3.429000000
C    -1.614000000    -3.715000000    -3.437000000
H    -2.245000000    -3.852000000    -2.562000000
C     0.524000000    -3.327000000    -4.566000000
H     1.603000000    -3.251000000    -4.670000000
C    -0.188000000    -2.915000000    -5.684000000
O     0.476000000    -2.439000000    -6.775000000
C    -1.594000000    -2.959000000    -5.702000000
H    -2.055000000    -2.635000000    -6.632000000
C    -2.291000000    -3.454000000    -4.576000000
O    -3.656000000    -3.367000000    -4.597000000
C    -4.536000000    -3.637000000    -3.584000000
C    -5.063000000    -2.606000000    -2.739000000
H    -4.894000000    -1.551000000    -2.942000000
C    -4.764000000    -4.969000000    -3.194000000
H    -4.355000000    -5.755000000    -3.823000000
C    -5.471000000    -5.355000000    -1.995000000
H    -5.597000000    -6.371000000    -1.631000000
C    -6.055000000    -4.299000000    -1.312000000
H    -6.534000000    -4.519000000    -0.361000000
C    -5.874000000    -2.953000000    -1.689000000
O    -6.425000000    -1.957000000    -0.950000000
C    -5.784000000    -1.311000000     0.100000000
C    -6.270000000    -0.122000000     0.482000000
H    -7.122000000     0.289000000    -0.055000000
C    -5.621000000     0.594000000     1.505000000
O    -5.955000000     1.940000000     1.604000000
C    -5.567000000     2.621000000     2.723000000
C    -4.555000000     3.561000000     2.639000000
H    -4.082000000     3.772000000     1.683000000
C    -6.321000000     2.560000000     3.892000000
H    -7.225000000     1.959000000     3.950000000
C    -5.990000000     3.407000000     4.980000000
H    -6.621000000     3.500000000     5.860000000
C    -4.983000000     4.342000000     4.842000000
H    -4.815000000     5.058000000     5.642000000
C    -4.193000000     4.359000000     3.747000000
O    -3.320000000     5.434000000     3.516000000
C    -2.002000000     5.288000000     3.207000000
C    -1.446000000     6.238000000     2.397000000
H    -2.032000000     7.149000000     2.300000000
C    -0.154000000     6.080000000     1.944000000
O     0.409000000     7.102000000     1.255000000
C     1.487000000     6.848000000     0.462000000
C     1.369000000     6.061000000    -0.707000000
H     0.386000000     5.843000000    -1.116000000
C     2.794000000     7.197000000     0.848000000
H     2.892000000     7.744000000     1.782000000
C     3.903000000     7.041000000     0.042000000
H     4.956000000     7.164000000     0.285000000
C     3.749000000     6.346000000    -1.141000000
H     4.586000000     6.157000000    -1.809000000
C     2.480000000     5.803000000    -1.507000000
O     2.424000000     5.093000000    -2.759000000
C     2.845000000     3.793000000    -2.934000000
C     2.761000000     3.472000000    -4.261000000
H     2.488000000     4.186000000    -5.034000000
C     3.047000000     2.150000000    -4.636000000
O     2.677000000     1.822000000    -5.938000000
C     2.588000000     0.530000000    -6.443000000
C     3.569000000     0.151000000    -7.334000000
H     4.357000000     0.853000000    -7.596000000
C     3.522000000    -1.049000000    -8.081000000
H     4.367000000    -1.270000000    -8.728000000
C     2.473000000    -1.917000000    -7.951000000
H     2.441000000    -2.837000000    -8.528000000
C     1.540000000    -1.588000000    -6.973000000
C     1.569000000    -0.408000000    -6.246000000
H     0.803000000    -0.320000000    -5.479000000
C    -1.529000000     2.608000000    -0.347000000
H    -1.719000000     3.582000000     0.096000000
C    -0.312000000     1.989000000    -0.044000000
H     0.490000000     2.531000000     0.450000000
C    -0.133000000     0.655000000    -0.425000000
H     0.792000000     0.123000000    -0.217000000
C    -1.170000000    -0.060000000    -1.077000000
H    -1.136000000    -1.126000000    -1.285000000
C    -2.436000000     0.522000000    -1.177000000
H    -3.259000000    -0.035000000    -1.617000000
C    -2.579000000     1.905000000    -0.944000000
C    -3.901000000     2.594000000    -1.245000000
O    -4.792000000     1.984000000    -1.865000000
O    -4.090000000     3.699000000    -0.778000000
O    -8.982000000     5.847000000    -1.335000000
H    -8.936000000     5.379000000    -2.169000000
H    -8.341000000     5.407000000    -0.778000000
O    -5.713000000     7.287000000    -2.018000000
H    -6.158000000     6.620000000    -2.541000000
H    -6.284000000     8.053000000    -2.070000000
O    -0.731000000     2.163000000    -5.773000000
H     0.149000000     2.470000000    -5.988000000
H    -0.868000000     2.442000000    -4.868000000
O    -3.462000000     3.942000000    -4.563000000
H    -3.641000000     3.048000000    -4.273000000
H    -3.908000000     4.013000000    -5.408000000
O    -2.341000000     0.051000000    -6.276000000
H    -1.687000000     0.703000000    -6.023000000
H    -2.862000000    -0.086000000    -5.484000000
O    -5.910000000     4.179000000    -6.194000000
H    -6.105000000     4.855000000    -6.843000000
H    -6.392000000     4.451000000    -5.413000000
O    -8.754000000     3.110000000     1.772000000
H    -9.268000000     2.834000000     2.531000000
H    -7.923000000     2.643000000     1.863000000
O    -2.723000000     5.557000000    -2.273000000
H    -3.117000000     4.936000000    -1.660000000
H    -3.175000000     5.396000000    -3.101000000
O    -4.293000000     0.878000000    -4.185000000
H    -4.558000000     1.172000000    -3.314000000
H    -5.117000000     0.717000000    -4.645000000
O    -0.836000000     3.656000000    -3.137000000
H    -1.720000000     3.611000000    -3.504000000
H    -0.862000000     3.071000000    -2.380000000
O    -0.078000000     6.462000000    -3.463000000
H     0.784000000     6.047000000    -3.438000000
H    -0.696000000     5.733000000    -3.400000000
O    -7.125000000     2.296000000    -2.917000000
H    -6.271000000     2.260000000    -2.485000000
H    -7.263000000     1.409000000    -3.249000000
O    -2.198000000     7.960000000    -0.701000000
H    -2.420000000     7.088000000    -1.027000000
H    -1.377000000     8.179000000    -1.141000000
O    -4.759000000     6.215000000     0.170000000
H    -4.627000000     5.291000000    -0.039000000
H    -4.833000000     6.645000000    -0.682000000
O    -2.993000000     6.776000000    -5.541000000
H    -3.883000000     7.060000000    -5.750000000
H    -3.108000000     5.945000000    -5.080000000
O    -6.438000000     5.038000000    -2.919000000
H    -6.371000000     4.206000000    -3.387000000
H    -6.418000000     4.793000000    -1.993000000
O    -6.976000000     3.884000000    -0.242000000
H    -6.186000000     3.346000000    -0.194000000
H    -7.450000000     3.686000000     0.565000000
O    -5.882000000     7.483000000     2.130000000
H    -5.415000000     7.052000000     1.414000000
H    -6.702000000     6.995000000     2.209000000
O    -7.084000000    -0.049000000    -4.642000000
H    -7.369000000    -0.577000000    -3.896000000
H    -6.872000000    -0.688000000    -5.322000000
