215
-1436.60568
C    -4.441000000    -0.264000000     2.348000000
H    -3.825000000     0.498000000     2.819000000
C    -4.088000000    -1.582000000     2.299000000
C    -4.866000000    -2.481000000     1.602000000
H    -4.547000000    -3.510000000     1.458000000
C    -2.728000000    -1.993000000     2.718000000
O    -2.408000000    -1.590000000     4.023000000
H    -2.031000000    -1.601000000     1.963000000
O    -2.582000000    -3.470000000     2.570000000
C    -1.447000000    -3.945000000     2.125000000
C    -1.426000000    -4.281000000     0.758000000
H    -2.320000000    -4.188000000     0.146000000
C    -0.219000000    -4.787000000     0.264000000
O    -0.225000000    -4.971000000    -1.163000000
C     0.940000000    -4.743000000     1.044000000
C     2.233000000    -5.088000000     0.357000000
H     2.980000000    -5.552000000     1.004000000
C     2.836000000    -3.876000000    -0.259000000
C     3.745000000    -3.148000000     0.492000000
H     3.852000000    -3.410000000     1.542000000
H     2.069000000    -5.893000000    -0.362000000
C     0.941000000    -4.357000000     2.340000000
H     1.844000000    -4.402000000     2.944000000
C    -0.304000000    -3.964000000     2.942000000
C    -0.345000000    -3.569000000     4.441000000
H     0.438000000    -4.113000000     4.974000000
H    -1.294000000    -3.754000000     4.948000000
C    -0.096000000    -2.102000000     4.537000000
C     1.126000000    -1.624000000     4.792000000
H     2.008000000    -2.243000000     4.933000000
C    -1.154000000    -1.186000000     4.322000000
C    -0.936000000     0.172000000     4.256000000
H    -1.727000000     0.912000000     4.163000000
C     0.291000000     0.694000000     4.605000000
O     0.313000000     2.079000000     4.590000000
C     0.834000000     2.629000000     3.436000000
C     0.184000000     3.927000000     3.051000000
C     0.943000000     5.022000000     2.492000000
H     2.023000000     4.985000000     2.370000000
C    -1.202000000     4.045000000     3.054000000
H    -1.800000000     3.247000000     3.486000000
O     2.300000000     2.819000000     3.517000000
H     0.603000000     1.889000000     2.656000000
C     1.345000000    -0.250000000     4.826000000
C     2.729000000     0.317000000     5.004000000
H     3.368000000    -0.413000000     5.505000000
H     2.811000000     1.118000000     5.741000000
C     3.338000000     0.619000000     3.601000000
C     4.030000000    -0.377000000     2.939000000
H     3.944000000    -1.385000000     3.338000000
C     3.156000000     1.876000000     3.034000000
C     3.717000000     2.146000000     1.742000000
H     3.617000000     3.129000000     1.288000000
C     4.370000000     1.122000000     1.104000000
O     4.710000000     1.299000000    -0.205000000
C     3.998000000     0.771000000    -1.281000000
C     3.656000000     1.705000000    -2.422000000
C     3.349000000     3.034000000    -2.127000000
H     3.448000000     3.456000000    -1.130000000
C     3.388000000     1.239000000    -3.682000000
H     3.549000000     0.183000000    -3.883000000
O     4.599000000    -0.430000000    -1.737000000
H     2.993000000     0.480000000    -0.943000000
C     4.541000000    -0.142000000     1.696000000
C     5.306000000    -1.255000000     0.926000000
H     5.513000000    -2.008000000     1.690000000
H     6.261000000    -0.945000000     0.498000000
C     4.449000000    -2.029000000    -0.010000000
C     4.095000000    -1.610000000    -1.304000000
C     3.252000000    -2.356000000    -2.102000000
H     2.984000000    -1.909000000    -3.056000000
C     2.646000000    -3.483000000    -1.593000000
O     1.607000000    -4.119000000    -2.331000000
C     0.299000000    -3.875000000    -1.970000000
H     0.305000000    -2.902000000    -1.457000000
C    -0.581000000    -3.380000000    -3.142000000
C    -1.949000000    -3.122000000    -2.916000000
H    -2.311000000    -3.520000000    -1.972000000
C     0.027000000    -2.942000000    -4.349000000
H     1.100000000    -3.035000000    -4.495000000
C    -0.774000000    -2.372000000    -5.347000000
O    -0.283000000    -2.017000000    -6.595000000
C    -2.076000000    -2.164000000    -5.060000000
H    -2.687000000    -1.689000000    -5.823000000
C    -2.738000000    -2.481000000    -3.906000000
O    -4.095000000    -2.222000000    -3.832000000
C    -4.820000000    -3.041000000    -3.045000000
C    -5.257000000    -2.597000000    -1.781000000
H    -4.938000000    -1.702000000    -1.253000000
C    -5.366000000    -4.147000000    -3.663000000
H    -5.028000000    -4.459000000    -4.648000000
C    -6.127000000    -5.050000000    -2.915000000
H    -6.361000000    -5.992000000    -3.404000000
C    -6.525000000    -4.638000000    -1.634000000
H    -7.149000000    -5.238000000    -0.976000000
C    -6.160000000    -3.477000000    -1.089000000
O    -6.682000000    -3.037000000     0.135000000
C    -6.004000000    -2.118000000     0.966000000
C    -6.439000000    -0.813000000     1.095000000
H    -7.351000000    -0.457000000     0.623000000
C    -5.622000000     0.150000000     1.706000000
O    -6.016000000     1.446000000     1.843000000
C    -5.423000000     2.360000000     2.699000000
C    -4.705000000     3.431000000     2.135000000
H    -4.430000000     3.402000000     1.083000000
C    -5.736000000     2.424000000     4.055000000
H    -6.460000000     1.726000000     4.469000000
C    -5.073000000     3.315000000     4.915000000
H    -5.271000000     3.295000000     5.983000000
C    -4.256000000     4.315000000     4.329000000
H    -3.714000000     4.987000000     4.989000000
C    -4.080000000     4.336000000     2.973000000
O    -3.254000000     5.258000000     2.351000000
C    -1.896000000     5.123000000     2.465000000
C    -1.144000000     6.125000000     1.877000000
H    -1.668000000     6.935000000     1.376000000
C     0.233000000     6.154000000     1.937000000
O     0.865000000     7.100000000     1.239000000
C     1.872000000     6.865000000     0.374000000
C     1.770000000     5.998000000    -0.723000000
H     0.795000000     5.528000000    -0.830000000
C     3.086000000     7.570000000     0.482000000
H     3.316000000     8.270000000     1.280000000
C     4.087000000     7.499000000    -0.441000000
H     5.018000000     8.036000000    -0.281000000
C     3.931000000     6.634000000    -1.542000000
H     4.662000000     6.654000000    -2.346000000
C     2.803000000     5.903000000    -1.692000000
O     2.580000000     5.234000000    -2.897000000
C     2.937000000     3.907000000    -3.160000000
C     2.713000000     3.402000000    -4.438000000
H     2.427000000     4.078000000    -5.239000000
C     3.001000000     2.085000000    -4.756000000
O     2.874000000     1.697000000    -6.097000000
C     2.435000000     0.478000000    -6.684000000
C     3.333000000    -0.246000000    -7.523000000
H     4.380000000     0.028000000    -7.628000000
C     2.936000000    -1.456000000    -8.106000000
H     3.599000000    -2.002000000    -8.772000000
C     1.734000000    -2.059000000    -7.772000000
H     1.426000000    -2.994000000    -8.234000000
C     0.972000000    -1.484000000    -6.770000000
C     1.211000000    -0.194000000    -6.330000000
H     0.514000000     0.225000000    -5.608000000
C    -0.327000000     2.397000000    -1.256000000
H    -0.395000000     3.466000000    -1.439000000
C     0.575000000     1.948000000    -0.295000000
H     1.267000000     2.665000000     0.138000000
C     0.672000000     0.575000000     0.050000000
H     1.314000000     0.157000000     0.887000000
C    -0.205000000    -0.322000000    -0.527000000
H    -0.270000000    -1.324000000    -0.109000000
C    -1.131000000     0.132000000    -1.503000000
H    -1.790000000    -0.604000000    -1.956000000
C    -1.203000000     1.521000000    -1.850000000
C    -2.200000000     2.083000000    -2.929000000
O    -3.135000000     1.460000000    -3.376000000
O    -2.221000000     3.283000000    -3.078000000
O    -5.752000000     5.902000000    -3.669000000
H    -5.479000000     5.246000000    -3.028000000
H    -5.219000000     6.671000000    -3.467000000
O    -3.276000000     4.446000000    -7.669000000
H    -3.382000000     4.577000000    -6.727000000
H    -4.044000000     3.937000000    -7.928000000
O     0.983000000     6.731000000    -6.323000000
H     1.901000000     6.987000000    -6.412000000
H     0.871000000     6.567000000    -5.386000000
O    -4.739000000    -0.630000000    -8.712000000
H    -5.518000000    -0.736000000    -8.167000000
H    -4.165000000    -0.060000000    -8.200000000
O    -7.813000000     2.922000000    -0.487000000
H    -8.400000000     3.003000000    -1.239000000
H    -7.213000000     2.215000000    -0.727000000
O    -0.164000000     5.437000000    -3.971000000
H    -0.808000000     4.804000000    -3.655000000
H     0.589000000     5.323000000    -3.391000000
O    -1.626000000     8.215000000    -1.278000000
H    -2.109000000     8.642000000    -1.987000000
H    -2.283000000     7.687000000    -0.825000000
O    -3.045000000     0.749000000    -7.008000000
H    -2.477000000     1.279000000    -7.567000000
H    -2.916000000     1.105000000    -6.129000000
O    -5.206000000     2.841000000    -8.409000000
H    -5.391000000     2.612000000    -7.498000000
H    -5.190000000     2.002000000    -8.869000000
O    -1.382000000     2.513000000    -8.005000000
H    -0.613000000     3.081000000    -8.039000000
H    -2.124000000     3.116000000    -7.964000000
O    -6.654000000     1.214000000    -2.241000000
H    -6.062000000     0.948000000    -2.944000000
H    -7.368000000     0.576000000    -2.275000000
O    -2.090000000     7.030000000    -5.151000000
H    -2.023000000     7.600000000    -4.385000000
H    -1.227000000     6.622000000    -5.223000000
O    -5.108000000     0.261000000    -4.204000000
H    -4.301000000     0.671000000    -3.894000000
H    -5.016000000    -0.661000000    -3.963000000
O    -3.280000000     4.579000000    -5.073000000
H    -2.890000000     5.453000000    -5.066000000
H    -2.867000000     4.127000000    -4.337000000
O    -0.391000000     0.279000000    -9.178000000
H     0.051000000    -0.190000000    -8.470000000
H    -0.793000000     1.035000000    -8.749000000
O    -4.428000000     4.068000000    -1.734000000
H    -3.784000000     3.624000000    -2.285000000
H    -5.079000000     3.395000000    -1.536000000
O    -5.569000000     2.692000000    -5.739000000
H    -5.461000000     1.958000000    -5.134000000
H    -4.825000000     3.266000000    -5.556000000
O    -4.000000000     6.806000000    -0.811000000
H    -4.359000000     7.428000000    -1.443000000
H    -4.065000000     5.956000000    -1.247000000
O    -6.474000000    -0.423000000    -6.495000000
H    -5.853000000    -0.320000000    -5.774000000
H    -7.050000000    -1.134000000    -6.214000000
