215
-1468.28065
C    -3.819000000    -0.708000000     2.502000000
H    -3.312000000    -0.225000000     3.334000000
C    -3.196000000    -1.738000000     1.859000000
C    -3.785000000    -2.290000000     0.748000000
H    -3.312000000    -3.112000000     0.216000000
C    -1.848000000    -2.316000000     2.374000000
O    -1.647000000    -2.074000000     3.764000000
H    -1.058000000    -1.804000000     1.805000000
O    -1.630000000    -3.694000000     2.142000000
C    -0.410000000    -4.071000000     1.578000000
C    -0.474000000    -4.478000000     0.222000000
H    -1.426000000    -4.541000000    -0.299000000
C     0.704000000    -4.728000000    -0.448000000
O     0.495000000    -4.911000000    -1.802000000
C     1.946000000    -4.518000000     0.164000000
C     3.210000000    -4.745000000    -0.595000000
H     4.074000000    -5.038000000     0.006000000
C     3.602000000    -3.368000000    -1.074000000
C     4.374000000    -2.537000000    -0.304000000
H     4.796000000    -2.828000000     0.655000000
H     3.081000000    -5.481000000    -1.391000000
C     1.949000000    -4.199000000     1.530000000
H     2.922000000    -4.141000000     2.011000000
C     0.797000000    -4.034000000     2.277000000
C     0.898000000    -3.697000000     3.695000000
H     1.754000000    -4.132000000     4.215000000
H     0.108000000    -4.238000000     4.220000000
C     0.744000000    -2.235000000     4.137000000
C     1.966000000    -1.585000000     4.300000000
H     2.898000000    -2.124000000     4.152000000
C    -0.455000000    -1.527000000     4.174000000
C    -0.454000000    -0.180000000     4.531000000
H    -1.381000000     0.383000000     4.609000000
C     0.744000000     0.467000000     4.703000000
O     0.662000000     1.814000000     4.818000000
C     0.869000000     2.505000000     3.615000000
C    -0.104000000     3.633000000     3.404000000
C     0.101000000     4.625000000     2.431000000
H     0.982000000     4.595000000     1.795000000
C    -1.337000000     3.616000000     4.102000000
H    -1.578000000     2.843000000     4.827000000
O     2.232000000     2.971000000     3.437000000
H     0.622000000     1.789000000     2.817000000
C     1.991000000    -0.244000000     4.579000000
C     3.267000000     0.542000000     4.704000000
H     3.975000000    -0.229000000     5.012000000
H     3.238000000     1.363000000     5.423000000
C     3.624000000     1.031000000     3.296000000
C     4.466000000     0.233000000     2.460000000
H     4.943000000    -0.703000000     2.738000000
C     3.147000000     2.207000000     2.777000000
C     3.583000000     2.671000000     1.548000000
H     3.184000000     3.636000000     1.248000000
C     4.319000000     1.797000000     0.697000000
O     4.429000000     2.120000000    -0.600000000
C     3.433000000     1.472000000    -1.437000000
C     2.587000000     2.392000000    -2.376000000
C     2.515000000     3.762000000    -2.115000000
H     3.067000000     4.078000000    -1.233000000
C     1.842000000     1.892000000    -3.439000000
H     1.822000000     0.832000000    -3.678000000
O     4.093000000     0.486000000    -2.276000000
H     2.677000000     1.059000000    -0.752000000
C     4.671000000     0.528000000     1.180000000
C     5.441000000    -0.399000000     0.209000000
H     6.245000000    -0.934000000     0.719000000
H     5.989000000     0.273000000    -0.454000000
C     4.554000000    -1.227000000    -0.659000000
C     3.916000000    -0.762000000    -1.872000000
C     3.191000000    -1.612000000    -2.719000000
H     2.849000000    -1.324000000    -3.710000000
C     3.007000000    -2.955000000    -2.291000000
O     2.107000000    -3.789000000    -3.006000000
C     0.785000000    -3.814000000    -2.612000000
H     0.556000000    -2.894000000    -2.054000000
C    -0.121000000    -3.794000000    -3.820000000
C    -1.411000000    -4.243000000    -3.621000000
H    -1.580000000    -4.860000000    -2.742000000
C     0.137000000    -2.990000000    -4.901000000
H     1.101000000    -2.575000000    -5.186000000
C    -0.767000000    -2.834000000    -5.943000000
O    -0.352000000    -2.132000000    -7.108000000
C    -2.053000000    -3.305000000    -5.771000000
H    -2.679000000    -3.288000000    -6.659000000
C    -2.397000000    -3.908000000    -4.557000000
O    -3.702000000    -4.493000000    -4.429000000
C    -4.268000000    -4.610000000    -3.157000000
C    -4.608000000    -3.472000000    -2.401000000
H    -4.482000000    -2.488000000    -2.846000000
C    -4.524000000    -5.901000000    -2.603000000
H    -4.202000000    -6.752000000    -3.197000000
C    -5.072000000    -6.009000000    -1.372000000
H    -5.304000000    -7.010000000    -1.017000000
C    -5.551000000    -4.875000000    -0.731000000
H    -6.058000000    -4.940000000     0.228000000
C    -5.369000000    -3.615000000    -1.212000000
O    -5.776000000    -2.500000000    -0.631000000
C    -5.076000000    -1.844000000     0.356000000
C    -5.649000000    -0.778000000     1.004000000
H    -6.607000000    -0.338000000     0.738000000
C    -4.978000000    -0.183000000     2.053000000
O    -5.751000000     0.691000000     2.821000000
C    -5.254000000     1.508000000     3.803000000
C    -4.571000000     2.690000000     3.608000000
H    -4.207000000     2.918000000     2.610000000
C    -5.547000000     1.105000000     5.091000000
H    -5.959000000     0.112000000     5.252000000
C    -5.387000000     1.974000000     6.132000000
H    -5.751000000     1.674000000     7.111000000
C    -4.757000000     3.224000000     6.009000000
H    -4.535000000     3.877000000     6.849000000
C    -4.243000000     3.446000000     4.743000000
O    -3.514000000     4.580000000     4.518000000
C    -2.291000000     4.568000000     3.854000000
C    -2.096000000     5.582000000     2.946000000
H    -2.842000000     6.365000000     2.840000000
C    -0.918000000     5.602000000     2.211000000
O    -0.737000000     6.610000000     1.237000000
C     0.427000000     6.802000000     0.543000000
C     0.438000000     6.324000000    -0.709000000
H    -0.434000000     5.794000000    -1.084000000
C     1.545000000     7.328000000     1.143000000
H     1.562000000     7.668000000     2.175000000
C     2.688000000     7.493000000     0.362000000
H     3.537000000     8.070000000     0.720000000
C     2.751000000     7.057000000    -0.927000000
H     3.657000000     7.158000000    -1.519000000
C     1.623000000     6.479000000    -1.420000000
O     1.714000000     6.002000000    -2.693000000
C     1.711000000     4.602000000    -2.912000000
C     0.967000000     4.048000000    -3.991000000
H     0.263000000     4.638000000    -4.573000000
C     0.997000000     2.691000000    -4.243000000
O     0.252000000     2.216000000    -5.199000000
C     0.645000000     1.271000000    -6.093000000
C     1.696000000     1.517000000    -6.996000000
H     2.134000000     2.511000000    -6.981000000
C     1.928000000     0.541000000    -7.947000000
H     2.676000000     0.699000000    -8.720000000
C     1.266000000    -0.705000000    -7.992000000
H     1.478000000    -1.434000000    -8.770000000
C     0.335000000    -0.930000000    -7.095000000
C    -0.035000000     0.077000000    -6.153000000
H    -0.913000000    -0.113000000    -5.542000000
C    -1.038000000     2.010000000    -0.977000000
H    -1.110000000     3.095000000    -0.997000000
C    -0.123000000     1.511000000    -0.054000000
H     0.455000000     2.142000000     0.617000000
C    -0.011000000     0.146000000     0.087000000
H     0.711000000    -0.188000000     0.774000000
C    -0.809000000    -0.752000000    -0.696000000
H    -0.615000000    -1.816000000    -0.582000000
C    -1.710000000    -0.268000000    -1.564000000
H    -2.198000000    -0.957000000    -2.249000000
C    -1.909000000     1.123000000    -1.692000000
C    -2.941000000     1.754000000    -2.597000000
O    -3.705000000     1.178000000    -3.367000000
O    -3.099000000     2.953000000    -2.434000000
O    -5.423000000     6.212000000    -2.894000000
H    -5.608000000     6.364000000    -1.967000000
H    -5.492000000     5.263000000    -2.999000000
O    -1.176000000     2.650000000    -8.838000000
H    -1.711000000     1.947000000    -8.470000000
H    -1.423000000     3.427000000    -8.336000000
O    -4.842000000     4.966000000    -6.120000000
H    -5.197000000     4.809000000    -5.245000000
H    -4.030000000     4.459000000    -6.143000000
O    -3.304000000     1.212000000    -7.435000000
H    -3.303000000     0.468000000    -6.833000000
H    -3.006000000     1.951000000    -6.905000000
O    -7.561000000    -1.835000000    -3.756000000
H    -8.276000000    -1.491000000    -3.221000000
H    -7.858000000    -2.705000000    -4.023000000
O    -8.920000000     1.721000000    -2.110000000
H    -8.809000000     2.411000000    -1.456000000
H    -8.028000000     1.489000000    -2.367000000
O    -8.191000000     3.629000000    -0.264000000
H    -8.398000000     4.496000000    -0.613000000
H    -7.508000000     3.790000000     0.387000000
O    -2.492000000     5.415000000    -3.267000000
H    -2.481000000     4.572000000    -2.812000000
H    -3.356000000     5.779000000    -3.074000000
O    -3.443000000    -0.556000000    -5.438000000
H    -3.647000000    -0.078000000    -4.634000000
H    -4.260000000    -1.000000000    -5.667000000
O    -2.646000000     3.438000000    -5.770000000
H    -1.859000000     3.777000000    -6.196000000
H    -2.523000000     3.641000000    -4.843000000
O    -1.202000000     7.146000000    -4.904000000
H    -0.459000000     7.477000000    -4.400000000
H    -1.438000000     6.325000000    -4.472000000
O    -6.357000000     0.724000000    -2.462000000
H    -5.417000000     0.865000000    -2.574000000
H    -6.542000000    -0.071000000    -2.964000000
O    -4.836000000     3.038000000    -0.043000000
H    -4.099000000     2.985000000    -0.652000000
H    -5.346000000     2.247000000    -0.216000000
O    -7.996000000     2.555000000    -6.053000000
H    -7.896000000     2.323000000    -6.977000000
H    -7.112000000     2.483000000    -5.692000000
O    -5.600000000     1.493000000    -5.443000000
H    -4.882000000     1.575000000    -4.816000000
H    -5.173000000     1.262000000    -6.268000000
O    -0.762000000     5.099000000    -7.227000000
H    -0.995000000     6.016000000    -7.375000000
H     0.194000000     5.095000000    -7.202000000
O    -5.628000000     3.356000000    -3.263000000
H    -6.130000000     2.654000000    -2.849000000
H    -4.721000000     3.050000000    -3.237000000
O    -5.359000000     5.414000000     1.496000000
H    -5.068000000     4.869000000     0.765000000
H    -5.222000000     6.312000000     1.195000000
O    -5.796000000    -2.130000000    -5.919000000
H    -6.339000000    -1.930000000    -5.156000000
H    -6.236000000    -1.691000000    -6.647000000
