215
-1443.96859
C    -3.776000000    -0.506000000     2.188000000
H    -3.194000000     0.026000000     2.935000000
C    -3.391000000    -1.750000000     1.763000000
C    -4.258000000    -2.457000000     0.889000000
H    -4.026000000    -3.486000000     0.628000000
C    -2.106000000    -2.339000000     2.385000000
O    -1.924000000    -2.047000000     3.781000000
H    -1.248000000    -1.904000000     1.851000000
O    -1.932000000    -3.758000000     2.189000000
C    -0.804000000    -4.118000000     1.599000000
C    -0.867000000    -4.236000000     0.221000000
H    -1.772000000    -4.147000000    -0.376000000
C     0.310000000    -4.594000000    -0.395000000
O     0.351000000    -4.727000000    -1.708000000
C     1.545000000    -4.596000000     0.279000000
C     2.880000000    -4.867000000    -0.524000000
H     3.604000000    -5.258000000     0.194000000
C     3.498000000    -3.605000000    -1.138000000
C     4.307000000    -2.803000000    -0.356000000
H     4.528000000    -3.293000000     0.588000000
H     2.711000000    -5.674000000    -1.240000000
C     1.564000000    -4.422000000     1.688000000
H     2.504000000    -4.417000000     2.235000000
C     0.341000000    -4.194000000     2.390000000
C     0.326000000    -3.958000000     3.868000000
H     1.228000000    -4.392000000     4.303000000
H    -0.492000000    -4.470000000     4.380000000
C     0.438000000    -2.445000000     4.260000000
C     1.633000000    -1.843000000     4.591000000
H     2.555000000    -2.414000000     4.672000000
C    -0.671000000    -1.594000000     4.161000000
C    -0.582000000    -0.216000000     4.376000000
H    -1.400000000     0.445000000     4.100000000
C     0.638000000     0.304000000     4.552000000
O     0.671000000     1.625000000     4.731000000
C     0.952000000     2.441000000     3.544000000
C     0.073000000     3.605000000     3.543000000
C     0.273000000     4.520000000     2.549000000
H     1.028000000     4.348000000     1.786000000
C    -1.003000000     3.739000000     4.375000000
H    -1.268000000     2.877000000     4.982000000
O     2.392000000     2.772000000     3.551000000
H     0.835000000     1.862000000     2.616000000
C     1.797000000    -0.459000000     4.668000000
C     3.204000000     0.169000000     4.729000000
H     3.993000000    -0.469000000     5.132000000
H     3.043000000     1.032000000     5.378000000
C     3.645000000     0.686000000     3.355000000
C     4.445000000    -0.126000000     2.500000000
H     4.777000000    -1.058000000     2.950000000
C     3.219000000     1.917000000     2.860000000
C     3.613000000     2.296000000     1.556000000
H     3.257000000     3.272000000     1.237000000
C     4.389000000     1.404000000     0.753000000
O     4.560000000     1.711000000    -0.550000000
C     3.734000000     1.142000000    -1.555000000
C     3.058000000     2.190000000    -2.415000000
C     3.149000000     3.566000000    -2.145000000
H     3.585000000     3.877000000    -1.200000000
C     2.189000000     1.828000000    -3.472000000
H     1.911000000     0.810000000    -3.734000000
O     4.488000000     0.186000000    -2.301000000
H     2.957000000     0.616000000    -0.981000000
C     4.730000000     0.139000000     1.186000000
C     5.616000000    -0.812000000     0.303000000
H     6.219000000    -1.496000000     0.904000000
H     6.411000000    -0.290000000    -0.234000000
C     4.812000000    -1.606000000    -0.707000000
C     4.389000000    -1.095000000    -1.966000000
C     3.529000000    -1.860000000    -2.726000000
H     3.142000000    -1.410000000    -3.636000000
C     3.028000000    -3.080000000    -2.310000000
O     1.956000000    -3.490000000    -2.941000000
C     0.630000000    -3.525000000    -2.393000000
H     0.469000000    -2.667000000    -1.723000000
C    -0.339000000    -3.330000000    -3.521000000
C    -1.628000000    -3.815000000    -3.417000000
H    -1.833000000    -4.558000000    -2.651000000
C    -0.049000000    -2.500000000    -4.635000000
H     0.937000000    -2.062000000    -4.765000000
C    -0.966000000    -2.207000000    -5.624000000
O    -0.550000000    -1.703000000    -6.868000000
C    -2.250000000    -2.821000000    -5.506000000
H    -2.953000000    -2.641000000    -6.316000000
C    -2.584000000    -3.498000000    -4.395000000
O    -3.764000000    -4.165000000    -4.463000000
C    -4.586000000    -4.391000000    -3.303000000
C    -4.913000000    -3.343000000    -2.421000000
H    -4.690000000    -2.323000000    -2.723000000
C    -5.032000000    -5.665000000    -3.086000000
H    -4.695000000    -6.381000000    -3.832000000
C    -5.875000000    -5.951000000    -2.041000000
H    -6.290000000    -6.955000000    -2.006000000
C    -6.259000000    -4.930000000    -1.153000000
H    -6.902000000    -5.151000000    -0.304000000
C    -5.784000000    -3.584000000    -1.362000000
O    -6.163000000    -2.551000000    -0.543000000
C    -5.341000000    -1.816000000     0.314000000
C    -5.687000000    -0.509000000     0.758000000
H    -6.570000000     0.031000000     0.428000000
C    -4.853000000     0.164000000     1.649000000
O    -5.135000000     1.496000000     1.920000000
C    -5.074000000     2.027000000     3.201000000
C    -4.271000000     3.213000000     3.381000000
H    -3.833000000     3.683000000     2.504000000
C    -5.855000000     1.510000000     4.282000000
H    -6.487000000     0.647000000     4.088000000
C    -5.693000000     2.166000000     5.491000000
H    -6.238000000     1.798000000     6.356000000
C    -4.847000000     3.266000000     5.687000000
H    -4.789000000     3.700000000     6.681000000
C    -4.084000000     3.748000000     4.629000000
O    -3.130000000     4.688000000     4.860000000
C    -1.929000000     4.734000000     4.164000000
C    -1.606000000     5.738000000     3.207000000
H    -2.281000000     6.577000000     3.058000000
C    -0.499000000     5.561000000     2.347000000
O    -0.282000000     6.472000000     1.382000000
C     0.923000000     6.657000000     0.739000000
C     1.042000000     6.128000000    -0.546000000
H     0.184000000     5.708000000    -1.065000000
C     2.022000000     7.279000000     1.371000000
H     1.989000000     7.669000000     2.386000000
C     3.285000000     7.269000000     0.738000000
H     4.101000000     7.715000000     1.301000000
C     3.368000000     6.756000000    -0.551000000
H     4.254000000     6.770000000    -1.180000000
C     2.252000000     6.177000000    -1.164000000
O     2.443000000     5.859000000    -2.462000000
C     2.452000000     4.542000000    -2.877000000
C     1.562000000     4.124000000    -3.866000000
H     1.104000000     4.910000000    -4.461000000
C     1.489000000     2.776000000    -4.149000000
O     0.684000000     2.548000000    -5.206000000
C     0.876000000     1.525000000    -6.102000000
C     1.854000000     1.690000000    -7.099000000
H     2.542000000     2.530000000    -7.139000000
C     2.044000000     0.619000000    -7.974000000
H     2.817000000     0.678000000    -8.736000000
C     1.253000000    -0.564000000    -7.919000000
H     1.296000000    -1.366000000    -8.651000000
C     0.256000000    -0.611000000    -6.914000000
C     0.035000000     0.424000000    -6.045000000
H    -0.845000000     0.349000000    -5.412000000
C    -0.577000000     2.364000000    -1.511000000
H    -0.532000000     3.422000000    -1.759000000
C     0.337000000     1.928000000    -0.512000000
H     0.953000000     2.600000000     0.079000000
C     0.317000000     0.614000000    -0.160000000
H     0.806000000     0.274000000     0.700000000
C    -0.514000000    -0.309000000    -0.824000000
H    -0.597000000    -1.359000000    -0.558000000
C    -1.314000000     0.119000000    -1.954000000
H    -1.969000000    -0.595000000    -2.447000000
C    -1.307000000     1.462000000    -2.277000000
C    -2.329000000     1.983000000    -3.268000000
O    -3.180000000     1.271000000    -3.767000000
O    -2.379000000     3.186000000    -3.546000000
O    -5.949000000     6.203000000    -1.657000000
H    -6.743000000     6.540000000    -2.073000000
H    -5.666000000     5.487000000    -2.225000000
O    -0.352000000     4.081000000    -8.648000000
H    -0.706000000     3.290000000    -8.242000000
H    -0.308000000     4.717000000    -7.935000000
O    -3.965000000     6.143000000    -7.054000000
H    -3.592000000     6.671000000    -6.348000000
H    -3.673000000     5.251000000    -6.866000000
O    -7.678000000     1.439000000    -5.056000000
H    -6.847000000     1.502000000    -4.585000000
H    -7.490000000     0.864000000    -5.798000000
O    -2.517000000     2.188000000    -7.990000000
H    -2.818000000     2.966000000    -7.521000000
H    -2.733000000     1.459000000    -7.409000000
O    -7.564000000    -0.982000000    -2.240000000
H    -7.464000000    -1.574000000    -2.985000000
H    -7.190000000    -1.461000000    -1.501000000
O    -2.043000000     5.603000000    -2.377000000
H    -1.951000000     4.889000000    -3.007000000
H    -2.440000000     5.194000000    -1.608000000
O    -3.498000000     0.360000000    -6.092000000
H    -3.250000000     0.582000000    -5.194000000
H    -4.130000000    -0.353000000    -5.996000000
O    -2.328000000     4.123000000    -6.083000000
H    -1.579000000     4.711000000    -6.176000000
H    -2.223000000     3.738000000    -5.213000000
O    -1.211000000     8.509000000    -2.731000000
H    -1.523000000     7.606000000    -2.665000000
H    -0.499000000     8.469000000    -3.369000000
O    -5.697000000     1.504000000    -2.978000000
H    -4.790000000     1.287000000    -3.194000000
H    -6.133000000     0.656000000    -2.894000000
O    -4.237000000     3.450000000    -0.481000000
H    -4.595000000     3.587000000    -1.358000000
H    -4.387000000     2.521000000    -0.304000000
O    -7.141000000     4.857000000    -6.377000000
H    -6.288000000     4.423000000    -6.393000000
H    -7.302000000     5.103000000    -7.288000000
O    -3.792000000     7.191000000    -4.573000000
H    -4.498000000     7.655000000    -4.122000000
H    -3.373000000     6.668000000    -3.889000000
O    -4.988000000     2.918000000    -6.100000000
H    -4.216000000     2.854000000    -5.537000000
H    -5.206000000     2.011000000    -6.312000000
O    -0.603000000     5.996000000    -6.766000000
H    -1.222000000     6.680000000    -6.511000000
H     0.008000000     6.435000000    -7.358000000
O    -5.009000000     4.227000000    -3.099000000
H    -5.542000000     3.479000000    -3.367000000
H    -4.170000000     4.094000000    -3.540000000
O    -5.037000000     5.593000000     1.251000000
H    -4.743000000     4.813000000     0.781000000
H    -5.349000000     6.183000000     0.565000000
O    -5.483000000    -1.675000000    -4.899000000
H    -6.217000000    -2.103000000    -4.459000000
H    -5.225000000    -2.288000000    -5.587000000
