215
-1463.02609
C     4.087000000    -3.529000000    -1.786000000
H     3.309000000    -4.245000000    -1.533000000
C     4.477000000    -2.569000000    -0.830000000
C     5.333000000    -1.591000000    -1.355000000
H     5.593000000    -0.835000000    -0.618000000
C     3.741000000    -2.469000000     0.498000000
O     3.397000000    -3.818000000     0.961000000
H     2.812000000    -1.950000000     0.221000000
O     4.480000000    -1.828000000     1.500000000
C     3.839000000    -1.008000000     2.435000000
C     3.848000000     0.361000000     2.196000000
H     4.427000000     0.804000000     1.390000000
C     3.168000000     1.220000000     3.002000000
O     3.165000000     2.518000000     2.537000000
C     2.526000000     0.823000000     4.165000000
C     1.670000000     1.726000000     4.966000000
H     1.672000000     1.253000000     5.950000000
C     0.298000000     2.098000000     4.448000000
C    -0.857000000     1.370000000     4.866000000
H    -0.697000000     0.516000000     5.520000000
H     2.322000000     2.599000000     5.034000000
C     2.514000000    -0.587000000     4.375000000
H     1.979000000    -0.959000000     5.244000000
C     3.115000000    -1.517000000     3.504000000
C     3.086000000    -3.010000000     3.723000000
H     2.894000000    -3.197000000     4.782000000
H     4.055000000    -3.443000000     3.468000000
C     1.965000000    -3.598000000     2.898000000
C     0.598000000    -3.664000000     3.315000000
H     0.376000000    -3.289000000     4.311000000
C     2.156000000    -3.940000000     1.546000000
C     1.115000000    -4.130000000     0.652000000
H     1.306000000    -4.183000000    -0.417000000
C    -0.192000000    -4.257000000     1.140000000
O    -1.135000000    -4.384000000     0.193000000
C    -1.835000000    -3.235000000    -0.265000000
C    -2.085000000    -3.355000000    -1.743000000
C    -3.125000000    -2.658000000    -2.333000000
H    -3.757000000    -1.989000000    -1.755000000
C    -1.272000000    -4.204000000    -2.528000000
H    -0.582000000    -4.837000000    -1.977000000
O    -3.126000000    -3.286000000     0.481000000
H    -1.179000000    -2.360000000    -0.150000000
C    -0.436000000    -4.036000000     2.493000000
C    -1.804000000    -4.008000000     3.082000000
H    -1.826000000    -4.186000000     4.159000000
H    -2.355000000    -4.885000000     2.733000000
C    -2.675000000    -2.726000000     2.812000000
C    -2.672000000    -1.713000000     3.792000000
H    -2.231000000    -1.947000000     4.758000000
C    -3.258000000    -2.487000000     1.570000000
C    -4.052000000    -1.350000000     1.337000000
H    -4.584000000    -1.082000000     0.428000000
C    -3.972000000    -0.371000000     2.317000000
O    -4.594000000     0.881000000     1.971000000
C    -3.684000000     1.920000000     1.554000000
C    -4.335000000     2.607000000     0.349000000
C    -5.274000000     1.970000000    -0.497000000
H    -5.555000000     0.957000000    -0.220000000
C    -4.030000000     3.955000000     0.110000000
H    -3.294000000     4.404000000     0.770000000
O    -3.456000000     2.829000000     2.624000000
H    -2.756000000     1.412000000     1.252000000
C    -3.282000000    -0.527000000     3.566000000
C    -3.205000000     0.664000000     4.538000000
H    -3.177000000     0.295000000     5.565000000
H    -4.070000000     1.330000000     4.538000000
C    -2.102000000     1.687000000     4.250000000
C    -2.241000000     2.693000000     3.340000000
C    -1.105000000     3.476000000     3.009000000
H    -1.252000000     4.331000000     2.355000000
C     0.183000000     3.213000000     3.550000000
O     1.275000000     3.869000000     3.036000000
C     1.957000000     3.097000000     1.971000000
H     1.340000000     2.268000000     1.594000000
C     2.298000000     3.962000000     0.795000000
C     3.275000000     3.572000000    -0.092000000
H     4.004000000     2.809000000     0.169000000
C     1.411000000     4.961000000     0.376000000
H     0.478000000     5.146000000     0.901000000
C     1.443000000     5.537000000    -0.923000000
O     0.509000000     6.380000000    -1.337000000
C     2.464000000     5.106000000    -1.808000000
H     2.525000000     5.508000000    -2.816000000
C     3.342000000     4.118000000    -1.429000000
O     4.376000000     3.785000000    -2.381000000
C     5.445000000     3.001000000    -2.129000000
C     5.548000000     1.786000000    -2.802000000
H     4.811000000     1.538000000    -3.562000000
C     6.462000000     3.317000000    -1.199000000
H     6.416000000     4.281000000    -0.699000000
C     7.565000000     2.443000000    -1.058000000
H     8.384000000     2.699000000    -0.391000000
C     7.530000000     1.184000000    -1.605000000
H     8.235000000     0.391000000    -1.368000000
C     6.564000000     0.884000000    -2.507000000
O     6.557000000    -0.421000000    -3.051000000
C     5.755000000    -1.514000000    -2.689000000
C     5.394000000    -2.516000000    -3.577000000
H     5.740000000    -2.353000000    -4.595000000
C     4.590000000    -3.553000000    -3.107000000
O     3.990000000    -4.366000000    -4.029000000
C     2.915000000    -5.167000000    -3.830000000
C     1.624000000    -4.870000000    -4.386000000
H     1.555000000    -3.902000000    -4.877000000
C     3.145000000    -6.392000000    -3.163000000
H     4.133000000    -6.686000000    -2.821000000
C     2.053000000    -7.243000000    -2.993000000
H     2.135000000    -8.064000000    -2.285000000
C     0.787000000    -6.860000000    -3.457000000
H    -0.089000000    -7.426000000    -3.150000000
C     0.550000000    -5.700000000    -4.184000000
O    -0.698000000    -5.242000000    -4.643000000
C    -1.481000000    -4.334000000    -3.897000000
C    -2.335000000    -3.487000000    -4.545000000
H    -2.379000000    -3.498000000    -5.631000000
C    -3.174000000    -2.595000000    -3.791000000
O    -4.019000000    -1.636000000    -4.409000000
C    -5.195000000    -1.205000000    -3.816000000
C    -5.363000000     0.136000000    -3.463000000
H    -4.512000000     0.809000000    -3.537000000
C    -6.204000000    -2.044000000    -3.493000000
H    -6.174000000    -3.106000000    -3.722000000
C    -7.295000000    -1.721000000    -2.675000000
H    -7.960000000    -2.492000000    -2.294000000
C    -7.487000000    -0.422000000    -2.353000000
H    -8.230000000    -0.127000000    -1.616000000
C    -6.586000000     0.563000000    -2.833000000
O    -6.713000000     1.831000000    -2.441000000
C    -5.757000000     2.531000000    -1.662000000
C    -5.374000000     3.814000000    -1.943000000
H    -5.714000000     4.255000000    -2.877000000
C    -4.481000000     4.550000000    -1.089000000
O    -4.195000000     5.886000000    -1.399000000
C    -3.096000000     6.526000000    -0.732000000
C    -3.168000000     7.486000000     0.258000000
H    -4.162000000     7.802000000     0.561000000
C    -1.998000000     7.934000000     0.828000000
H    -1.936000000     8.767000000     1.524000000
C    -0.778000000     7.541000000     0.376000000
H     0.120000000     8.017000000     0.759000000
C    -0.695000000     6.717000000    -0.752000000
C    -1.860000000     6.124000000    -1.258000000
H    -1.915000000     5.389000000    -2.057000000
C    -1.189000000     0.962000000    -1.853000000
H    -2.166000000     1.195000000    -2.270000000
C    -1.003000000     0.175000000    -0.725000000
H    -1.833000000    -0.294000000    -0.201000000
C     0.237000000     0.059000000    -0.204000000
H     0.271000000    -0.401000000     0.725000000
C     1.396000000     0.699000000    -0.713000000
H     2.416000000     0.591000000    -0.352000000
C     1.177000000     1.507000000    -1.779000000
H     1.997000000     2.038000000    -2.255000000
C    -0.050000000     1.586000000    -2.441000000
C    -0.257000000     2.518000000    -3.604000000
O     0.630000000     3.174000000    -4.125000000
O    -1.322000000     2.500000000    -4.220000000
O    -2.670000000     6.770000000    -4.096000000
H    -2.381000000     7.671000000    -4.238000000
H    -1.860000000     6.271000000    -3.993000000
O    -4.809000000     6.168000000    -6.363000000
H    -4.219000000     6.856000000    -6.670000000
H    -4.405000000     5.848000000    -5.557000000
O    -3.305000000     1.488000000    -6.386000000
H    -2.804000000     1.098000000    -5.670000000
H    -3.223000000     2.432000000    -6.248000000
O     3.290000000     3.661000000    -4.898000000
H     3.806000000     3.897000000    -4.126000000
H     2.527000000     3.204000000    -4.545000000
O     3.033000000     0.069000000    -8.070000000
H     3.432000000    -0.593000000    -7.505000000
H     2.106000000    -0.169000000    -8.101000000
O    -0.858000000     8.703000000    -4.268000000
H    -0.685000000     9.579000000    -4.613000000
H     0.005000000     8.364000000    -4.032000000
O    -2.231000000     4.061000000    -6.163000000
H    -1.905000000     3.474000000    -5.480000000
H    -1.764000000     4.883000000    -6.016000000
O     4.168000000     2.602000000    -7.403000000
H     3.615000000     1.839000000    -7.567000000
H     3.885000000     2.925000000    -6.548000000
O     1.958000000    -1.154000000    -4.142000000
H     1.297000000    -0.709000000    -4.672000000
H     1.726000000    -0.938000000    -3.239000000
O     0.247000000    -0.043000000    -5.911000000
H    -0.222000000    -0.645000000    -6.489000000
H     0.214000000     0.799000000    -6.365000000
O     1.320000000     4.102000000    -8.605000000
H     1.561000000     4.731000000    -7.925000000
H     0.913000000     3.379000000    -8.128000000
O     0.021000000     2.481000000    -6.836000000
H     0.109000000     2.690000000    -5.906000000
H    -0.882000000     2.717000000    -7.050000000
O    -0.584000000    -1.231000000    -8.428000000
H    -0.723000000    -1.059000000    -9.359000000
H    -0.680000000    -2.180000000    -8.343000000
O    -3.266000000    -0.273000000    -8.599000000
H    -2.360000000    -0.530000000    -8.769000000
H    -3.215000000     0.286000000    -7.823000000
O    -0.260000000     5.573000000    -5.076000000
H    -0.008000000     4.822000000    -4.538000000
H     0.468000000     5.688000000    -5.685000000
O     3.786000000    -1.484000000    -6.200000000
H     3.634000000    -2.394000000    -5.946000000
H     3.491000000    -0.972000000    -5.447000000
O     2.367000000     5.755000000    -6.305000000
H     3.180000000     6.244000000    -6.436000000
H     2.638000000     4.960000000    -5.845000000
O    -3.485000000     4.371000000    -8.797000000
H    -2.979000000     3.784000000    -8.236000000
H    -3.374000000     5.235000000    -8.402000000
O    -5.544000000    -0.312000000    -6.935000000
H    -5.193000000     0.088000000    -6.139000000
H    -4.871000000    -0.155000000    -7.598000000
