215
-1478.60033
C    -4.468000000    -0.332000000     2.582000000
H    -3.948000000     0.236000000     3.349000000
C    -3.920000000    -1.512000000     2.018000000
C    -4.527000000    -2.026000000     0.851000000
H    -3.957000000    -2.738000000     0.259000000
C    -2.541000000    -1.934000000     2.454000000
O    -2.328000000    -1.679000000     3.866000000
H    -1.866000000    -1.294000000     1.867000000
O    -2.420000000    -3.343000000     2.180000000
C    -1.239000000    -3.882000000     1.723000000
C    -1.214000000    -4.220000000     0.389000000
H    -2.105000000    -3.955000000    -0.174000000
C    -0.070000000    -4.599000000    -0.257000000
O    -0.186000000    -4.646000000    -1.622000000
C     1.129000000    -4.774000000     0.487000000
C     2.493000000    -5.007000000    -0.221000000
H     3.270000000    -5.554000000     0.318000000
C     3.078000000    -3.736000000    -0.808000000
C     3.951000000    -3.021000000    -0.031000000
H     4.156000000    -3.429000000     0.956000000
H     2.304000000    -5.566000000    -1.140000000
C     1.049000000    -4.523000000     1.887000000
H     1.939000000    -4.595000000     2.506000000
C    -0.133000000    -4.022000000     2.492000000
C    -0.197000000    -3.828000000     3.973000000
H     0.552000000    -4.474000000     4.435000000
H    -1.169000000    -4.125000000     4.372000000
C    -0.018000000    -2.354000000     4.412000000
C     1.303000000    -1.891000000     4.606000000
H     2.151000000    -2.554000000     4.764000000
C    -1.063000000    -1.385000000     4.363000000
C    -0.815000000    -0.022000000     4.635000000
H    -1.619000000     0.708000000     4.681000000
C     0.459000000     0.388000000     4.855000000
O     0.713000000     1.773000000     4.922000000
C     1.051000000     2.489000000     3.725000000
C     0.275000000     3.828000000     3.598000000
C     0.843000000     4.824000000     2.822000000
H     1.908000000     4.883000000     2.609000000
C    -1.094000000     3.962000000     3.902000000
H    -1.505000000     3.112000000     4.441000000
O     2.469000000     2.719000000     3.691000000
H     0.806000000     1.923000000     2.814000000
C     1.541000000    -0.491000000     4.778000000
C     2.940000000     0.077000000     4.861000000
H     3.562000000    -0.753000000     5.202000000
H     3.098000000     0.854000000     5.613000000
C     3.431000000     0.597000000     3.443000000
C     4.040000000    -0.318000000     2.598000000
H     4.231000000    -1.324000000     2.962000000
C     3.283000000     1.888000000     3.020000000
C     3.621000000     2.293000000     1.762000000
H     3.369000000     3.259000000     1.329000000
C     4.137000000     1.347000000     0.856000000
O     4.281000000     1.698000000    -0.469000000
C     3.460000000     1.021000000    -1.497000000
C     3.083000000     2.060000000    -2.524000000
C     2.631000000     3.315000000    -2.136000000
H     2.663000000     3.562000000    -1.078000000
C     3.009000000     1.753000000    -3.868000000
H     3.276000000     0.748000000    -4.186000000
O     4.242000000    -0.013000000    -2.067000000
H     2.535000000     0.620000000    -1.060000000
C     4.442000000     0.031000000     1.334000000
C     5.195000000    -0.946000000     0.527000000
H     5.686000000    -1.660000000     1.191000000
H     5.994000000    -0.494000000    -0.064000000
C     4.343000000    -1.746000000    -0.421000000
C     3.981000000    -1.311000000    -1.668000000
C     3.091000000    -1.997000000    -2.500000000
H     2.696000000    -1.625000000    -3.442000000
C     2.641000000    -3.210000000    -2.045000000
O     1.647000000    -3.871000000    -2.725000000
C     0.301000000    -3.494000000    -2.330000000
H     0.310000000    -2.585000000    -1.711000000
C    -0.665000000    -3.112000000    -3.508000000
C    -2.066000000    -3.220000000    -3.447000000
H    -2.569000000    -3.657000000    -2.588000000
C    -0.021000000    -2.741000000    -4.704000000
H     1.058000000    -2.710000000    -4.834000000
C    -0.834000000    -2.439000000    -5.821000000
O    -0.207000000    -1.940000000    -6.997000000
C    -2.207000000    -2.628000000    -5.859000000
H    -2.744000000    -2.613000000    -6.805000000
C    -2.800000000    -2.981000000    -4.630000000
O    -4.153000000    -3.263000000    -4.699000000
C    -4.821000000    -3.554000000    -3.550000000
C    -5.308000000    -2.575000000    -2.749000000
H    -5.105000000    -1.539000000    -3.010000000
C    -5.030000000    -4.936000000    -3.215000000
H    -4.691000000    -5.693000000    -3.917000000
C    -5.618000000    -5.283000000    -1.987000000
H    -5.799000000    -6.319000000    -1.710000000
C    -5.993000000    -4.291000000    -1.138000000
H    -6.385000000    -4.560000000    -0.161000000
C    -5.887000000    -2.954000000    -1.516000000
O    -6.413000000    -1.990000000    -0.660000000
C    -5.813000000    -1.578000000     0.482000000
C    -6.375000000    -0.456000000     1.135000000
H    -7.316000000    -0.079000000     0.741000000
C    -5.732000000     0.156000000     2.229000000
O    -6.245000000     1.396000000     2.666000000
C    -5.493000000     2.237000000     3.526000000
C    -4.632000000     3.210000000     3.123000000
H    -4.537000000     3.406000000     2.058000000
C    -5.550000000     1.890000000     4.920000000
H    -6.156000000     1.033000000     5.205000000
C    -4.842000000     2.640000000     5.809000000
H    -5.152000000     2.512000000     6.843000000
C    -4.117000000     3.806000000     5.462000000
H    -3.598000000     4.416000000     6.197000000
C    -4.026000000     4.024000000     4.088000000
O    -3.242000000     5.068000000     3.623000000
C    -1.877000000     4.962000000     3.336000000
C    -1.263000000     6.044000000     2.624000000
H    -1.868000000     6.870000000     2.260000000
C     0.088000000     5.903000000     2.321000000
O     0.696000000     6.946000000     1.733000000
C     1.660000000     6.626000000     0.763000000
C     1.298000000     6.264000000    -0.534000000
H     0.250000000     6.115000000    -0.783000000
C     3.083000000     6.795000000     1.046000000
H     3.352000000     7.106000000     2.052000000
C     4.007000000     6.573000000     0.002000000
H     5.052000000     6.871000000     0.039000000
C     3.531000000     6.142000000    -1.253000000
H     4.248000000     6.016000000    -2.060000000
C     2.222000000     5.938000000    -1.574000000
O     1.945000000     5.494000000    -2.797000000
C     2.177000000     4.238000000    -3.127000000
C     2.110000000     3.884000000    -4.445000000
H     1.624000000     4.563000000    -5.141000000
C     2.537000000     2.596000000    -4.826000000
O     2.338000000     2.174000000    -6.143000000
C     2.224000000     0.825000000    -6.550000000
C     3.379000000     0.218000000    -7.116000000
H     4.343000000     0.715000000    -7.188000000
C     3.297000000    -1.058000000    -7.582000000
H     4.155000000    -1.509000000    -8.075000000
C     2.120000000    -1.758000000    -7.505000000
H     2.056000000    -2.747000000    -7.952000000
C     0.983000000    -1.209000000    -6.986000000
C     1.002000000     0.091000000    -6.387000000
H     0.089000000     0.565000000    -6.035000000
C    -0.616000000     2.279000000    -0.473000000
H    -0.292000000     3.314000000    -0.535000000
C     0.186000000     1.383000000     0.270000000
H     1.013000000     1.731000000     0.883000000
C    -0.061000000     0.007000000     0.347000000
H     0.717000000    -0.613000000     0.811000000
C    -1.102000000    -0.472000000    -0.462000000
H    -1.363000000    -1.527000000    -0.479000000
C    -1.903000000     0.345000000    -1.204000000
H    -2.680000000    -0.047000000    -1.856000000
C    -1.671000000     1.725000000    -1.209000000
C    -2.375000000     2.615000000    -2.189000000
O    -3.405000000     2.280000000    -2.740000000
O    -2.127000000     3.790000000    -2.161000000
O    -5.228000000     5.531000000    -1.601000000
H    -6.160000000     5.697000000    -1.744000000
H    -4.993000000     4.892000000    -2.274000000
O    -0.179000000     3.427000000    -6.858000000
H    -0.051000000     4.375000000    -6.819000000
H     0.695000000     3.061000000    -6.724000000
O    -2.979000000     5.596000000    -6.848000000
H    -3.030000000     5.173000000    -5.992000000
H    -2.054000000     5.823000000    -6.948000000
O    -5.057000000     3.158000000    -6.608000000
H    -4.388000000     2.558000000    -6.939000000
H    -5.735000000     3.156000000    -7.283000000
O    -2.277000000     1.390000000    -7.191000000
H    -1.745000000     2.101000000    -6.835000000
H    -2.376000000     0.777000000    -6.463000000
O    -7.144000000     4.047000000     0.866000000
H    -6.972000000     3.381000000     0.201000000
H    -7.627000000     3.583000000     1.550000000
O    -2.921000000     6.427000000    -2.602000000
H    -2.560000000     5.558000000    -2.431000000
H    -3.813000000     6.389000000    -2.256000000
O    -3.378000000     0.573000000    -4.608000000
H    -3.424000000     1.206000000    -3.892000000
H    -4.278000000     0.261000000    -4.710000000
O    -1.116000000     4.762000000    -4.468000000
H    -0.808000000     3.912000000    -4.782000000
H    -1.548000000     4.568000000    -3.636000000
O     0.143000000     7.234000000    -4.787000000
H    -0.128000000     6.334000000    -4.602000000
H    -0.627000000     7.638000000    -5.188000000
O    -7.268000000     3.117000000    -4.166000000
H    -6.796000000     3.823000000    -4.608000000
H    -6.888000000     2.315000000    -4.523000000
O    -3.677000000     9.076000000    -1.716000000
H    -3.411000000     8.191000000    -1.965000000
H    -2.900000000     9.613000000    -1.875000000
O    -3.393000000     4.918000000     0.381000000
H    -4.091000000     5.198000000    -0.212000000
H    -2.884000000     4.288000000    -0.130000000
O    -6.096000000     6.179000000    -5.492000000
H    -6.128000000     7.069000000    -5.141000000
H    -5.425000000     5.739000000    -4.969000000
O    -2.857000000     8.376000000    -4.645000000
H    -3.730000000     8.763000000    -4.577000000
H    -2.893000000     7.605000000    -4.079000000
O    -4.529000000     4.288000000    -4.168000000
H    -4.017000000     3.746000000    -3.566000000
H    -4.456000000     3.842000000    -5.012000000
O    -6.360000000     2.473000000    -1.803000000
H    -6.778000000     2.685000000    -2.638000000
H    -5.450000000     2.283000000    -2.032000000
O    -5.446000000     6.321000000     1.900000000
H    -4.600000000     5.875000000     1.943000000
H    -6.046000000     5.663000000     1.549000000
O    -6.218000000     0.718000000    -5.011000000
H    -6.443000000     0.783000000    -5.939000000
H    -6.554000000    -0.137000000    -4.742000000
