215
-1476.97910
C    -3.832000000    -1.014000000     3.463000000
H    -3.354000000    -0.552000000     4.324000000
C    -3.141000000    -1.866000000     2.606000000
C    -3.682000000    -2.201000000     1.398000000
H    -3.073000000    -2.839000000     0.762000000
C    -1.716000000    -2.253000000     2.978000000
O    -1.431000000    -1.879000000     4.314000000
H    -1.077000000    -1.718000000     2.261000000
O    -1.630000000    -3.719000000     2.753000000
C    -0.428000000    -4.052000000     2.260000000
C    -0.484000000    -4.457000000     0.917000000
H    -1.469000000    -4.497000000     0.459000000
C     0.640000000    -4.600000000     0.148000000
O     0.506000000    -4.950000000    -1.155000000
C     1.879000000    -4.317000000     0.714000000
C     3.130000000    -4.518000000    -0.048000000
H     3.944000000    -4.913000000     0.563000000
C     3.458000000    -3.166000000    -0.714000000
C     4.469000000    -2.422000000    -0.175000000
H     5.033000000    -2.633000000     0.730000000
H     3.001000000    -5.287000000    -0.813000000
C     1.910000000    -3.986000000     2.109000000
H     2.841000000    -3.919000000     2.667000000
C     0.812000000    -3.809000000     2.891000000
C     0.996000000    -3.305000000     4.303000000
H     1.957000000    -3.612000000     4.721000000
H     0.318000000    -3.851000000     4.962000000
C     0.946000000    -1.795000000     4.343000000
C     2.163000000    -1.105000000     4.366000000
H     3.107000000    -1.639000000     4.296000000
C    -0.285000000    -1.166000000     4.364000000
C    -0.334000000     0.229000000     4.381000000
H    -1.278000000     0.769000000     4.373000000
C     0.836000000     0.901000000     4.452000000
O     0.716000000     2.292000000     4.386000000
C     0.943000000     2.885000000     3.096000000
C    -0.187000000     3.951000000     2.791000000
C    -0.009000000     4.881000000     1.734000000
H     0.998000000     5.036000000     1.355000000
C    -1.519000000     3.816000000     3.348000000
H    -1.768000000     3.041000000     4.069000000
O     2.289000000     3.440000000     3.016000000
H     0.881000000     2.079000000     2.350000000
C     2.117000000     0.286000000     4.372000000
C     3.458000000     1.104000000     4.375000000
H     4.321000000     0.520000000     4.701000000
H     3.443000000     1.951000000     5.064000000
C     3.752000000     1.537000000     2.911000000
C     4.590000000     0.698000000     2.154000000
H     4.875000000    -0.255000000     2.592000000
C     3.210000000     2.685000000     2.357000000
C     3.404000000     2.899000000     1.015000000
H     2.946000000     3.747000000     0.513000000
C     4.220000000     2.003000000     0.225000000
O     4.334000000     2.159000000    -1.174000000
C     3.534000000     1.384000000    -2.073000000
C     2.784000000     2.230000000    -3.161000000
C     2.888000000     3.631000000    -3.093000000
H     3.545000000     4.117000000    -2.376000000
C     1.936000000     1.554000000    -4.087000000
H     1.701000000     0.496000000    -4.002000000
O     4.292000000     0.365000000    -2.720000000
H     2.771000000     0.861000000    -1.478000000
C     4.831000000     0.873000000     0.804000000
C     5.606000000    -0.155000000    -0.051000000
H     6.252000000    -0.778000000     0.570000000
H     6.224000000     0.324000000    -0.813000000
C     4.720000000    -1.179000000    -0.806000000
C     4.159000000    -0.874000000    -2.075000000
C     3.278000000    -1.783000000    -2.616000000
H     2.955000000    -1.689000000    -3.650000000
C     2.871000000    -2.906000000    -1.950000000
O     1.936000000    -3.681000000    -2.558000000
C     0.613000000    -3.781000000    -1.996000000
H     0.443000000    -2.829000000    -1.474000000
C    -0.350000000    -3.880000000    -3.117000000
C    -1.616000000    -4.415000000    -2.925000000
H    -1.904000000    -4.770000000    -1.939000000
C    -0.059000000    -3.233000000    -4.379000000
H     0.913000000    -2.809000000    -4.619000000
C    -1.012000000    -3.255000000    -5.420000000
O    -0.675000000    -2.778000000    -6.674000000
C    -2.254000000    -3.825000000    -5.204000000
H    -2.938000000    -3.828000000    -6.049000000
C    -2.541000000    -4.365000000    -3.955000000
O    -3.777000000    -4.979000000    -3.755000000
C    -4.339000000    -5.064000000    -2.455000000
C    -4.533000000    -3.822000000    -1.841000000
H    -4.204000000    -2.936000000    -2.378000000
C    -4.888000000    -6.229000000    -1.874000000
H    -4.841000000    -7.122000000    -2.491000000
C    -5.686000000    -6.063000000    -0.755000000
H    -6.189000000    -6.937000000    -0.349000000
C    -5.899000000    -4.845000000    -0.120000000
H    -6.524000000    -4.760000000     0.766000000
C    -5.267000000    -3.681000000    -0.647000000
O    -5.556000000    -2.412000000    -0.134000000
C    -5.001000000    -1.952000000     1.065000000
C    -5.734000000    -1.073000000     1.926000000
H    -6.739000000    -0.819000000     1.601000000
C    -5.079000000    -0.552000000     3.061000000
O    -5.876000000     0.284000000     3.865000000
C    -5.347000000     1.451000000     4.409000000
C    -4.738000000     2.420000000     3.609000000
H    -4.835000000     2.339000000     2.529000000
C    -5.319000000     1.630000000     5.817000000
H    -5.792000000     0.880000000     6.446000000
C    -4.765000000     2.750000000     6.371000000
H    -4.868000000     2.943000000     7.436000000
C    -4.158000000     3.720000000     5.563000000
H    -3.816000000     4.636000000     6.039000000
C    -4.205000000     3.558000000     4.176000000
O    -3.842000000     4.619000000     3.380000000
C    -2.573000000     4.621000000     2.856000000
C    -2.384000000     5.440000000     1.765000000
H    -3.209000000     6.040000000     1.393000000
C    -1.077000000     5.616000000     1.243000000
O    -0.862000000     6.429000000     0.108000000
C     0.414000000     6.632000000    -0.442000000
C     0.646000000     6.099000000    -1.715000000
H    -0.182000000     5.531000000    -2.131000000
C     1.389000000     7.465000000     0.113000000
H     1.215000000     7.978000000     1.055000000
C     2.613000000     7.673000000    -0.547000000
H     3.383000000     8.297000000    -0.101000000
C     2.790000000     7.129000000    -1.844000000
H     3.713000000     7.394000000    -2.355000000
C     1.765000000     6.394000000    -2.458000000
O     1.924000000     5.767000000    -3.684000000
C     2.027000000     4.426000000    -3.843000000
C     1.158000000     3.801000000    -4.675000000
H     0.409000000     4.364000000    -5.226000000
C     1.121000000     2.417000000    -4.876000000
O     0.163000000     1.895000000    -5.749000000
C     0.470000000     0.741000000    -6.455000000
C     1.674000000     0.649000000    -7.199000000
H     2.328000000     1.496000000    -7.389000000
C     2.054000000    -0.575000000    -7.737000000
H     2.947000000    -0.645000000    -8.353000000
C     1.195000000    -1.681000000    -7.616000000
H     1.448000000    -2.629000000    -8.085000000
C     0.075000000    -1.631000000    -6.768000000
C    -0.300000000    -0.405000000    -6.255000000
H    -1.160000000    -0.380000000    -5.591000000
C    -0.593000000     2.026000000    -1.134000000
H    -0.611000000     2.999000000    -1.618000000
C     0.437000000     1.737000000    -0.262000000
H     1.178000000     2.519000000    -0.113000000
C     0.597000000     0.437000000     0.182000000
H     1.450000000     0.166000000     0.785000000
C    -0.359000000    -0.565000000    -0.123000000
H    -0.323000000    -1.570000000     0.290000000
C    -1.435000000    -0.225000000    -0.934000000
H    -2.183000000    -0.941000000    -1.263000000
C    -1.551000000     1.099000000    -1.487000000
C    -2.709000000     1.541000000    -2.377000000
O    -3.527000000     0.731000000    -2.751000000
O    -2.892000000     2.752000000    -2.488000000
O    -4.153000000     6.177000000    -2.840000000
H    -4.995000000     6.563000000    -2.597000000
H    -4.062000000     5.418000000    -2.263000000
O    -2.060000000     2.414000000    -8.527000000
H    -2.384000000     3.258000000    -8.213000000
H    -1.109000000     2.472000000    -8.432000000
O    -8.340000000    -2.538000000    -1.728000000
H    -8.245000000    -3.168000000    -2.442000000
H    -7.633000000    -1.908000000    -1.869000000
O    -4.942000000     4.442000000    -8.025000000
H    -4.414000000     5.169000000    -7.695000000
H    -4.941000000     3.803000000    -7.312000000
O    -3.455000000     0.155000000    -8.256000000
H    -3.130000000     1.055000000    -8.258000000
H    -3.603000000    -0.044000000    -7.331000000
O    -8.521000000     2.533000000    -3.171000000
H    -8.770000000     2.657000000    -2.255000000
H    -7.571000000     2.650000000    -3.179000000
O    -7.835000000     1.797000000     0.608000000
H    -8.004000000     1.208000000     1.343000000
H    -7.281000000     1.288000000     0.016000000
O    -0.650000000     7.470000000    -4.537000000
H    -0.733000000     6.608000000    -4.130000000
H     0.173000000     7.819000000    -4.195000000
O    -3.946000000     0.225000000    -5.404000000
H    -3.789000000     0.439000000    -4.484000000
H    -4.579000000    -0.492000000    -5.379000000
O    -1.895000000     4.771000000    -4.018000000
H    -2.755000000     5.184000000    -4.093000000
H    -2.034000000     4.037000000    -3.419000000
O    -5.925000000     0.397000000    -1.015000000
H    -5.463000000     0.705000000    -1.795000000
H    -5.622000000    -0.504000000    -0.897000000
O    -4.348000000     4.029000000    -0.807000000
H    -3.739000000     3.557000000    -1.375000000
H    -4.199000000     3.660000000     0.063000000
O    -7.408000000     1.352000000    -6.772000000
H    -7.332000000     1.655000000    -7.676000000
H    -6.578000000     1.599000000    -6.365000000
O    -5.548000000     6.769000000    -5.975000000
H    -5.046000000     6.191000000    -5.400000000
H    -6.119000000     7.258000000    -5.383000000
O    -5.114000000     2.830000000    -5.778000000
H    -5.233000000     3.190000000    -4.899000000
H    -4.503000000     2.102000000    -5.658000000
O    -2.116000000     4.852000000    -6.802000000
H    -1.358000000     5.436000000    -6.820000000
H    -2.293000000     4.718000000    -5.871000000
O    -5.681000000     2.710000000    -3.108000000
H    -5.578000000     3.269000000    -2.337000000
H    -4.848000000     2.243000000    -3.178000000
O    -6.275000000     5.613000000     1.254000000
H    -6.250000000     5.678000000     0.299000000
H    -7.163000000     5.885000000     1.488000000
O    -5.860000000    -1.762000000    -4.955000000
H    -5.638000000    -2.466000000    -4.346000000
H    -6.764000000    -1.943000000    -5.211000000
