215
-1450.67616
C    -3.596000000    -1.013000000     3.414000000
H    -3.071000000    -0.379000000     4.125000000
C    -2.971000000    -2.101000000     2.750000000
C    -3.700000000    -2.807000000     1.737000000
H    -3.236000000    -3.565000000     1.112000000
C    -1.494000000    -2.298000000     3.013000000
O    -1.103000000    -1.836000000     4.257000000
H    -0.949000000    -1.694000000     2.272000000
O    -1.127000000    -3.623000000     3.013000000
C    -0.044000000    -3.810000000     2.229000000
C    -0.189000000    -4.359000000     0.928000000
H    -1.199000000    -4.573000000     0.590000000
C     0.912000000    -4.656000000     0.172000000
O     0.709000000    -4.933000000    -1.200000000
C     2.239000000    -4.497000000     0.641000000
C     3.421000000    -4.446000000    -0.287000000
H     4.340000000    -4.671000000     0.258000000
C     3.701000000    -3.211000000    -1.122000000
C     4.598000000    -2.254000000    -0.610000000
H     5.146000000    -2.511000000     0.293000000
H     3.341000000    -5.298000000    -0.965000000
C     2.400000000    -4.124000000     1.987000000
H     3.361000000    -3.964000000     2.469000000
C     1.300000000    -3.683000000     2.717000000
C     1.502000000    -3.236000000     4.112000000
H     2.507000000    -3.450000000     4.480000000
H     0.847000000    -3.858000000     4.725000000
C     1.342000000    -1.719000000     4.373000000
C     2.474000000    -0.909000000     4.411000000
H     3.492000000    -1.289000000     4.411000000
C     0.091000000    -1.167000000     4.458000000
C    -0.024000000     0.278000000     4.462000000
H    -1.004000000     0.700000000     4.253000000
C     1.084000000     1.094000000     4.625000000
O     0.858000000     2.434000000     4.509000000
C     0.898000000     3.003000000     3.186000000
C    -0.119000000     4.119000000     2.939000000
C     0.086000000     5.151000000     1.998000000
H     1.021000000     5.230000000     1.449000000
C    -1.360000000     4.027000000     3.526000000
H    -1.587000000     3.172000000     4.157000000
O     2.286000000     3.463000000     2.960000000
H     0.638000000     2.177000000     2.506000000
C     2.339000000     0.499000000     4.438000000
C     3.584000000     1.366000000     4.196000000
H     4.510000000     1.016000000     4.657000000
H     3.497000000     2.310000000     4.739000000
C     3.787000000     1.608000000     2.738000000
C     4.486000000     0.688000000     1.915000000
H     4.950000000    -0.197000000     2.344000000
C     3.105000000     2.699000000     2.161000000
C     3.188000000     2.932000000     0.832000000
H     2.636000000     3.800000000     0.478000000
C     3.948000000     2.111000000     0.033000000
O     3.819000000     2.323000000    -1.326000000
C     2.976000000     1.488000000    -2.225000000
C     2.335000000     2.357000000    -3.252000000
C     2.149000000     3.777000000    -3.004000000
H     2.560000000     4.260000000    -2.121000000
C     1.739000000     1.762000000    -4.431000000
H     1.931000000     0.727000000    -4.703000000
O     3.875000000     0.552000000    -2.890000000
H     2.206000000     0.863000000    -1.749000000
C     4.622000000     0.980000000     0.541000000
C     5.388000000     0.094000000    -0.429000000
H     6.190000000    -0.420000000     0.105000000
H     5.870000000     0.666000000    -1.225000000
C     4.648000000    -0.950000000    -1.151000000
C     3.878000000    -0.686000000    -2.272000000
C     3.001000000    -1.630000000    -2.765000000
H     2.343000000    -1.414000000    -3.603000000
C     2.891000000    -2.891000000    -2.187000000
O     1.882000000    -3.693000000    -2.719000000
C     0.642000000    -3.735000000    -2.044000000
H     0.628000000    -2.866000000    -1.370000000
C    -0.524000000    -3.814000000    -2.981000000
C    -1.619000000    -4.630000000    -2.728000000
H    -1.655000000    -5.240000000    -1.829000000
C    -0.533000000    -3.021000000    -4.064000000
H     0.239000000    -2.294000000    -4.302000000
C    -1.612000000    -3.111000000    -4.981000000
O    -1.541000000    -2.350000000    -6.156000000
C    -2.682000000    -3.957000000    -4.806000000
H    -3.465000000    -4.044000000    -5.556000000
C    -2.682000000    -4.688000000    -3.624000000
O    -3.711000000    -5.518000000    -3.322000000
C    -4.395000000    -5.497000000    -2.117000000
C    -4.699000000    -4.325000000    -1.512000000
H    -4.459000000    -3.363000000    -1.958000000
C    -4.677000000    -6.649000000    -1.440000000
H    -4.438000000    -7.529000000    -2.033000000
C    -5.211000000    -6.641000000    -0.190000000
H    -5.447000000    -7.553000000     0.354000000
C    -5.514000000    -5.417000000     0.498000000
H    -6.106000000    -5.490000000     1.406000000
C    -5.292000000    -4.269000000    -0.212000000
O    -5.727000000    -3.054000000     0.333000000
C    -5.015000000    -2.518000000     1.390000000
C    -5.504000000    -1.438000000     1.996000000
H    -6.490000000    -1.071000000     1.723000000
C    -4.820000000    -0.671000000     2.969000000
O    -5.448000000     0.398000000     3.510000000
C    -4.926000000     1.473000000     4.235000000
C    -4.553000000     2.637000000     3.588000000
H    -4.858000000     2.801000000     2.558000000
C    -4.651000000     1.255000000     5.584000000
H    -4.874000000     0.314000000     6.081000000
C    -4.047000000     2.263000000     6.305000000
H    -3.736000000     2.200000000     7.345000000
C    -3.904000000     3.543000000     5.684000000
H    -3.488000000     4.397000000     6.213000000
C    -4.045000000     3.696000000     4.330000000
O    -3.645000000     4.842000000     3.690000000
C    -2.376000000     4.939000000     3.234000000
C    -2.137000000     5.964000000     2.277000000
H    -2.929000000     6.629000000     1.943000000
C    -0.899000000     6.164000000     1.683000000
O    -0.697000000     7.027000000     0.656000000
C     0.327000000     6.972000000    -0.224000000
C     0.156000000     6.333000000    -1.468000000
H    -0.700000000     5.748000000    -1.791000000
C     1.445000000     7.754000000     0.021000000
H     1.463000000     8.194000000     1.015000000
C     2.471000000     7.769000000    -0.921000000
H     3.405000000     8.307000000    -0.774000000
C     2.344000000     7.189000000    -2.126000000
H     3.105000000     7.170000000    -2.902000000
C     1.132000000     6.501000000    -2.440000000
O     0.967000000     5.788000000    -3.641000000
C     1.277000000     4.467000000    -3.848000000
C     0.822000000     3.915000000    -5.005000000
H     0.083000000     4.490000000    -5.557000000
C     1.021000000     2.597000000    -5.322000000
O     0.440000000     2.050000000    -6.478000000
C     0.394000000     0.706000000    -6.816000000
C     1.352000000     0.259000000    -7.684000000
H     2.145000000     0.922000000    -8.022000000
C     1.369000000    -1.083000000    -8.098000000
H     2.114000000    -1.536000000    -8.747000000
C     0.351000000    -1.909000000    -7.578000000
H     0.293000000    -2.941000000    -7.915000000
C    -0.565000000    -1.534000000    -6.641000000
C    -0.529000000    -0.133000000    -6.289000000
H    -1.295000000     0.244000000    -5.617000000
C    -0.819000000     2.108000000    -1.250000000
H    -0.921000000     3.109000000    -1.662000000
C     0.089000000     1.694000000    -0.265000000
H     0.790000000     2.392000000     0.185000000
C     0.031000000     0.365000000     0.204000000
H     0.751000000     0.033000000     1.025000000
C    -0.776000000    -0.570000000    -0.453000000
H    -0.879000000    -1.628000000    -0.223000000
C    -1.495000000    -0.191000000    -1.572000000
H    -2.164000000    -0.904000000    -2.048000000
C    -1.557000000     1.180000000    -1.947000000
C    -2.555000000     1.569000000    -3.072000000
O    -3.417000000     0.776000000    -3.282000000
O    -2.810000000     2.732000000    -3.292000000
O    -3.634000000     6.085000000    -0.544000000
H    -3.569000000     6.028000000    -1.498000000
H    -3.588000000     5.177000000    -0.246000000
O    -4.550000000     3.400000000    -8.335000000
H    -4.172000000     2.965000000    -7.571000000
H    -5.354000000     3.803000000    -8.009000000
O    -8.674000000     0.056000000    -5.350000000
H    -8.107000000    -0.671000000    -5.607000000
H    -8.172000000     0.528000000    -4.685000000
O    -5.626000000     2.830000000    -2.614000000
H    -5.130000000     3.605000000    -2.349000000
H    -5.004000000     2.310000000    -3.123000000
O    -3.811000000     5.144000000    -3.304000000
H    -3.365000000     5.557000000    -4.044000000
H    -3.332000000     4.328000000    -3.162000000
O    -6.803000000    -1.376000000    -2.189000000
H    -7.241000000    -0.631000000    -2.600000000
H    -7.374000000    -1.617000000    -1.460000000
O    -6.101000000     6.605000000    -3.291000000
H    -5.385000000     6.021000000    -3.040000000
H    -6.777000000     6.020000000    -3.634000000
O    -6.238000000    -1.444000000    -4.913000000
H    -5.960000000    -1.367000000    -4.001000000
H    -5.542000000    -1.016000000    -5.413000000
O    -3.156000000     2.931000000    -5.908000000
H    -3.002000000     3.876000000    -5.903000000
H    -3.001000000     2.659000000    -5.004000000
O    -6.813000000     0.634000000    -7.772000000
H    -7.113000000     0.792000000    -6.877000000
H    -6.777000000    -0.319000000    -7.848000000
O    -3.160000000     5.976000000    -5.928000000
H    -3.596000000     6.059000000    -6.776000000
H    -2.864000000     6.863000000    -5.723000000
O    -4.554000000     0.148000000    -0.891000000
H    -4.164000000     0.394000000    -1.730000000
H    -5.089000000    -0.619000000    -1.091000000
O    -3.206000000     1.270000000     1.222000000
H    -2.409000000     0.744000000     1.150000000
H    -3.792000000     0.908000000     0.558000000
O    -3.974000000     0.329000000    -5.624000000
H    -3.643000000     1.174000000    -5.928000000
H    -3.914000000     0.378000000    -4.670000000
O    -1.748000000     2.492000000    -8.898000000
H    -1.652000000     2.535000000    -7.946000000
H    -2.684000000     2.626000000    -9.050000000
O    -3.407000000     3.411000000    -0.324000000
H    -3.420000000     2.786000000     0.401000000
H    -3.078000000     2.908000000    -1.069000000
O    -3.985000000    -1.625000000    -7.395000000
H    -3.864000000    -1.126000000    -6.588000000
H    -3.358000000    -1.243000000    -8.009000000
O    -6.596000000     1.745000000     0.000000000
H    -5.973000000     1.035000000    -0.154000000
H    -6.276000000     2.466000000    -0.542000000
O    -7.608000000     1.208000000    -3.438000000
H    -6.858000000     1.766000000    -3.233000000
H    -8.372000000     1.749000000    -3.236000000
