215
-1469.82015
C    -3.525000000    -0.624000000     3.188000000
H    -2.974000000     0.145000000     3.723000000
C    -2.833000000    -1.788000000     2.947000000
C    -3.474000000    -2.841000000     2.390000000
H    -2.903000000    -3.717000000     2.094000000
C    -1.359000000    -1.825000000     3.283000000
O    -1.086000000    -1.115000000     4.501000000
H    -0.759000000    -1.300000000     2.525000000
O    -0.901000000    -3.220000000     3.417000000
C     0.331000000    -3.586000000     2.908000000
C     0.210000000    -4.374000000     1.775000000
H    -0.760000000    -4.783000000     1.503000000
C     1.424000000    -4.652000000     1.113000000
O     1.220000000    -5.107000000    -0.130000000
C     2.627000000    -4.092000000     1.517000000
C     3.823000000    -4.182000000     0.589000000
H     4.694000000    -4.089000000     1.242000000
C     3.960000000    -3.047000000    -0.375000000
C     4.696000000    -1.887000000    -0.139000000
H     5.303000000    -1.907000000     0.762000000
H     3.884000000    -5.175000000     0.138000000
C     2.661000000    -3.380000000     2.726000000
H     3.541000000    -2.804000000     3.000000000
C     1.501000000    -3.121000000     3.455000000
C     1.540000000    -2.322000000     4.705000000
H     2.441000000    -2.576000000     5.266000000
H     0.784000000    -2.676000000     5.409000000
C     1.329000000    -0.872000000     4.555000000
C     2.432000000    -0.009000000     4.403000000
H     3.431000000    -0.429000000     4.486000000
C     0.038000000    -0.305000000     4.572000000
C    -0.226000000     1.023000000     4.344000000
H    -1.250000000     1.373000000     4.242000000
C     0.900000000     1.862000000     4.096000000
O     0.614000000     3.152000000     3.708000000
C     0.798000000     3.421000000     2.307000000
C    -0.336000000     4.364000000     1.862000000
C    -0.240000000     5.337000000     0.877000000
H     0.692000000     5.453000000     0.330000000
C    -1.541000000     4.305000000     2.509000000
H    -1.718000000     3.623000000     3.337000000
O     2.062000000     3.990000000     2.071000000
H     0.692000000     2.490000000     1.731000000
C     2.239000000     1.367000000     4.105000000
C     3.453000000     2.193000000     3.735000000
H     4.329000000     1.885000000     4.310000000
H     3.367000000     3.179000000     4.196000000
C     3.679000000     2.265000000     2.234000000
C     4.550000000     1.314000000     1.578000000
H     5.106000000     0.610000000     2.192000000
C     2.939000000     3.150000000     1.475000000
C     3.050000000     3.190000000     0.116000000
H     2.629000000     4.036000000    -0.422000000
C     3.961000000     2.374000000    -0.555000000
O     3.853000000     2.357000000    -1.931000000
C     2.849000000     1.414000000    -2.381000000
C     1.979000000     2.026000000    -3.509000000
C     1.792000000     3.375000000    -3.519000000
H     2.356000000     3.962000000    -2.799000000
C     1.118000000     1.178000000    -4.254000000
H     1.305000000     0.107000000    -4.250000000
O     3.551000000     0.272000000    -2.897000000
H     2.224000000     1.106000000    -1.530000000
C     4.667000000     1.387000000     0.180000000
C     5.526000000     0.379000000    -0.568000000
H     6.411000000     0.050000000    -0.019000000
H     5.847000000     0.911000000    -1.466000000
C     4.668000000    -0.813000000    -1.017000000
C     3.859000000    -0.876000000    -2.148000000
C     3.260000000    -2.073000000    -2.484000000
H     2.662000000    -2.176000000    -3.385000000
C     3.309000000    -3.182000000    -1.587000000
O     2.465000000    -4.201000000    -1.896000000
C     1.161000000    -4.181000000    -1.267000000
H     1.067000000    -3.170000000    -0.844000000
C     0.000000000    -4.416000000    -2.206000000
C    -1.278000000    -4.764000000    -1.738000000
H    -1.405000000    -4.913000000    -0.669000000
C     0.216000000    -4.091000000    -3.565000000
H     1.143000000    -3.683000000    -3.960000000
C    -0.865000000    -4.302000000    -4.485000000
O    -0.824000000    -3.955000000    -5.822000000
C    -1.978000000    -4.894000000    -3.995000000
H    -2.756000000    -5.110000000    -4.723000000
C    -2.281000000    -5.014000000    -2.657000000
O    -3.553000000    -5.393000000    -2.383000000
C    -4.082000000    -5.681000000    -1.090000000
C    -4.393000000    -4.625000000    -0.196000000
H    -4.245000000    -3.597000000    -0.516000000
C    -4.563000000    -6.966000000    -0.889000000
H    -4.199000000    -7.757000000    -1.540000000
C    -5.309000000    -7.293000000     0.247000000
H    -5.603000000    -8.320000000     0.446000000
C    -5.575000000    -6.253000000     1.221000000
H    -6.155000000    -6.420000000     2.125000000
C    -5.134000000    -4.926000000     0.954000000
O    -5.599000000    -3.874000000     1.780000000
C    -4.862000000    -2.752000000     2.145000000
C    -5.523000000    -1.581000000     2.424000000
H    -6.578000000    -1.514000000     2.169000000
C    -4.875000000    -0.423000000     2.871000000
O    -5.605000000     0.721000000     3.134000000
C    -5.107000000     1.803000000     3.808000000
C    -4.675000000     2.904000000     3.086000000
H    -4.753000000     2.785000000     2.008000000
C    -4.994000000     1.787000000     5.165000000
H    -5.281000000     0.904000000     5.729000000
C    -4.430000000     2.910000000     5.822000000
H    -4.371000000     2.888000000     6.908000000
C    -4.085000000     4.046000000     5.074000000
H    -3.713000000     4.914000000     5.613000000
C    -4.219000000     4.034000000     3.704000000
O    -3.778000000     5.089000000     2.958000000
C    -2.647000000     5.095000000     2.170000000
C    -2.496000000     6.111000000     1.186000000
H    -3.320000000     6.738000000     0.856000000
C    -1.237000000     6.242000000     0.555000000
O    -0.956000000     7.251000000    -0.290000000
C     0.058000000     7.152000000    -1.263000000
C    -0.098000000     6.270000000    -2.323000000
H    -0.987000000     5.647000000    -2.359000000
C     1.029000000     8.118000000    -1.320000000
H     1.173000000     8.767000000    -0.460000000
C     1.904000000     8.097000000    -2.420000000
H     2.680000000     8.858000000    -2.426000000
C     1.780000000     7.196000000    -3.420000000
H     2.522000000     7.192000000    -4.214000000
C     0.782000000     6.203000000    -3.411000000
O     0.551000000     5.285000000    -4.516000000
C     0.838000000     3.937000000    -4.455000000
C     0.156000000     3.084000000    -5.306000000
H    -0.556000000     3.410000000    -6.060000000
C     0.328000000     1.732000000    -5.280000000
O    -0.249000000     0.868000000    -6.203000000
C     0.116000000    -0.474000000    -6.538000000
C     1.156000000    -0.634000000    -7.419000000
H     1.636000000     0.246000000    -7.841000000
C     1.658000000    -1.884000000    -7.729000000
H     2.283000000    -1.936000000    -8.617000000
C     0.945000000    -3.015000000    -7.241000000
H     1.017000000    -4.060000000    -7.530000000
C    -0.074000000    -2.871000000    -6.299000000
C    -0.491000000    -1.621000000    -5.978000000
H    -1.200000000    -1.390000000    -5.187000000
C    -1.033000000     1.409000000    -1.573000000
H    -1.295000000     2.256000000    -2.202000000
C     0.069000000     1.366000000    -0.685000000
H     0.661000000     2.264000000    -0.527000000
C     0.328000000     0.155000000     0.016000000
H     1.243000000     0.164000000     0.705000000
C    -0.421000000    -0.981000000    -0.180000000
H    -0.208000000    -1.877000000     0.397000000
C    -1.502000000    -0.891000000    -1.061000000
H    -2.118000000    -1.778000000    -1.181000000
C    -1.770000000     0.251000000    -1.806000000
C    -2.904000000     0.162000000    -2.780000000
O    -3.570000000    -0.853000000    -2.940000000
O    -3.061000000     1.120000000    -3.506000000
O    -5.500000000    -1.111000000    -1.028000000
H    -4.833000000    -1.230000000    -1.704000000
H    -5.996000000    -1.929000000    -1.033000000
O    -2.594000000     0.028000000    -9.068000000
H    -2.820000000    -0.899000000    -9.154000000
H    -2.805000000     0.242000000    -8.159000000
O    -8.106000000    -3.380000000    -4.618000000
H    -7.391000000    -3.129000000    -4.034000000
H    -8.513000000    -4.132000000    -4.189000000
O    -5.278000000     3.392000000    -7.599000000
H    -4.900000000     3.178000000    -6.746000000
H    -5.723000000     2.590000000    -7.872000000
O    -3.072000000     5.117000000    -6.192000000
H    -3.833000000     5.675000000    -6.353000000
H    -3.434000000     4.335000000    -5.774000000
O    -3.781000000     3.323000000    -2.169000000
H    -3.604000000     2.612000000    -2.785000000
H    -4.386000000     2.942000000    -1.532000000
O    -3.984000000    -4.362000000    -6.832000000
H    -4.900000000    -4.085000000    -6.829000000
H    -3.546000000    -3.743000000    -6.247000000
O    -7.941000000     2.407000000     0.470000000
H    -7.157000000     1.862000000     0.402000000
H    -7.682000000     3.248000000     0.094000000
O    -4.577000000     3.049000000    -4.953000000
H    -4.779000000     3.714000000    -4.295000000
H    -4.046000000     2.404000000    -4.486000000
O    -5.116000000     5.661000000    -1.340000000
H    -5.459000000     5.758000000    -0.452000000
H    -4.481000000     4.948000000    -1.275000000
O    -6.298000000     0.815000000    -3.530000000
H    -5.401000000     0.690000000    -3.841000000
H    -6.527000000    -0.017000000    -3.117000000
O    -3.376000000    -1.927000000    -5.584000000
H    -3.384000000    -1.612000000    -4.680000000
H    -3.495000000    -1.138000000    -6.113000000
O    -5.633000000    -2.526000000    -3.658000000
H    -4.795000000    -2.940000000    -3.451000000
H    -5.405000000    -1.807000000    -4.248000000
O    -2.639000000     1.784000000     1.114000000
H    -1.889000000     1.469000000     0.609000000
H    -2.448000000     2.708000000     1.274000000
O    -3.348000000     0.894000000    -6.435000000
H    -2.621000000     1.140000000    -5.863000000
H    -4.031000000     1.536000000    -6.243000000
O    -5.600000000    -0.965000000    -8.323000000
H    -5.902000000    -1.082000000    -9.223000000
H    -4.781000000    -1.458000000    -8.279000000
O    -5.044000000     1.505000000    -0.272000000
H    -5.404000000     0.632000000    -0.432000000
H    -4.194000000     1.341000000     0.138000000
O    -6.468000000     4.993000000    -3.399000000
H    -6.962000000     5.666000000    -3.867000000
H    -5.851000000     5.483000000    -2.856000000
O    -7.988000000     2.920000000    -4.058000000
H    -7.373000000     3.637000000    -3.901000000
H    -7.506000000     2.132000000    -3.805000000
