215
-1461.93914
C    -3.400000000    -0.377000000     4.100000000
H    -2.734000000     0.209000000     4.728000000
C    -2.808000000    -1.428000000     3.295000000
C    -3.586000000    -2.090000000     2.357000000
H    -3.118000000    -2.793000000     1.673000000
C    -1.292000000    -1.644000000     3.318000000
O    -0.717000000    -0.974000000     4.519000000
H    -0.938000000    -1.205000000     2.373000000
O    -0.904000000    -3.037000000     3.397000000
C     0.197000000    -3.419000000     2.690000000
C    -0.079000000    -4.100000000     1.536000000
H    -1.096000000    -4.364000000     1.255000000
C     0.943000000    -4.536000000     0.711000000
O     0.544000000    -5.045000000    -0.476000000
C     2.257000000    -4.254000000     1.045000000
C     3.312000000    -4.556000000     0.025000000
H     4.241000000    -4.760000000     0.561000000
C     3.446000000    -3.470000000    -1.006000000
C     4.303000000    -2.418000000    -0.726000000
H     4.966000000    -2.389000000     0.135000000
H     3.060000000    -5.474000000    -0.509000000
C     2.511000000    -3.657000000     2.280000000
H     3.542000000    -3.393000000     2.501000000
C     1.476000000    -3.253000000     3.129000000
C     1.749000000    -2.587000000     4.490000000
H     2.762000000    -2.832000000     4.817000000
H     1.022000000    -2.794000000     5.279000000
C     1.669000000    -1.075000000     4.210000000
C     2.907000000    -0.466000000     3.897000000
H     3.818000000    -0.986000000     3.611000000
C     0.508000000    -0.359000000     4.363000000
C     0.588000000     1.017000000     4.286000000
H    -0.316000000     1.602000000     4.437000000
C     1.724000000     1.675000000     3.992000000
O     1.725000000     2.998000000     3.720000000
C     1.506000000     3.350000000     2.295000000
C     0.397000000     4.419000000     2.145000000
C     0.553000000     5.419000000     1.159000000
H     1.456000000     5.612000000     0.584000000
C    -0.815000000     4.309000000     2.818000000
H    -1.046000000     3.470000000     3.470000000
O     2.763000000     3.726000000     1.692000000
H     1.044000000     2.494000000     1.781000000
C     2.947000000     0.949000000     3.784000000
C     4.135000000     1.714000000     3.225000000
H     5.040000000     1.243000000     3.617000000
H     4.173000000     2.697000000     3.700000000
C     4.177000000     1.811000000     1.722000000
C     4.846000000     0.840000000     1.051000000
H     5.350000000     0.049000000     1.601000000
C     3.543000000     2.820000000     1.006000000
C     3.626000000     2.919000000    -0.370000000
H     3.147000000     3.676000000    -0.986000000
C     4.247000000     1.872000000    -1.074000000
O     4.169000000     1.804000000    -2.470000000
C     3.097000000     0.954000000    -2.924000000
C     2.171000000     1.671000000    -3.903000000
C     1.823000000     2.983000000    -3.673000000
H     2.288000000     3.636000000    -2.939000000
C     1.416000000     0.920000000    -4.786000000
H     1.621000000    -0.134000000    -4.957000000
O     3.701000000    -0.212000000    -3.555000000
H     2.527000000     0.642000000    -2.037000000
C     4.936000000     0.837000000    -0.360000000
C     5.510000000    -0.218000000    -1.238000000
H     6.319000000    -0.722000000    -0.705000000
H     6.008000000     0.040000000    -2.176000000
C     4.478000000    -1.329000000    -1.587000000
C     3.784000000    -1.359000000    -2.818000000
C     2.990000000    -2.471000000    -3.124000000
H     2.506000000    -2.406000000    -4.095000000
C     2.763000000    -3.526000000    -2.222000000
O     1.612000000    -4.315000000    -2.429000000
C     0.522000000    -4.143000000    -1.542000000
H     0.610000000    -3.140000000    -1.101000000
C    -0.798000000    -4.258000000    -2.288000000
C    -1.922000000    -4.766000000    -1.628000000
H    -1.843000000    -5.285000000    -0.676000000
C    -1.004000000    -3.566000000    -3.520000000
H    -0.170000000    -3.079000000    -4.018000000
C    -2.281000000    -3.511000000    -4.116000000
O    -2.396000000    -3.031000000    -5.396000000
C    -3.282000000    -4.381000000    -3.661000000
H    -4.195000000    -4.502000000    -4.237000000
C    -3.090000000    -4.926000000    -2.353000000
O    -4.045000000    -5.674000000    -1.804000000
C    -4.663000000    -5.441000000    -0.547000000
C    -4.841000000    -4.145000000    -0.150000000
H    -4.360000000    -3.387000000    -0.762000000
C    -5.310000000    -6.415000000     0.155000000
H    -5.121000000    -7.481000000     0.058000000
C    -6.193000000    -6.103000000     1.188000000
H    -6.645000000    -6.965000000     1.671000000
C    -6.425000000    -4.771000000     1.588000000
H    -7.094000000    -4.514000000     2.406000000
C    -5.654000000    -3.793000000     0.898000000
O    -5.781000000    -2.410000000     1.255000000
C    -5.022000000    -1.812000000     2.223000000
C    -5.486000000    -0.660000000     2.892000000
H    -6.520000000    -0.388000000     2.697000000
C    -4.748000000     0.032000000     3.803000000
O    -5.311000000     1.168000000     4.372000000
C    -4.504000000     2.232000000     4.798000000
C    -4.005000000     3.108000000     3.825000000
H    -4.136000000     2.752000000     2.806000000
C    -4.468000000     2.584000000     6.121000000
H    -4.999000000     1.974000000     6.848000000
C    -3.800000000     3.750000000     6.512000000
H    -3.657000000     3.873000000     7.583000000
C    -3.220000000     4.627000000     5.597000000
H    -2.734000000     5.551000000     5.900000000
C    -3.472000000     4.347000000     4.209000000
O    -3.069000000     5.194000000     3.228000000
C    -1.836000000     5.208000000     2.603000000
C    -1.669000000     6.244000000     1.727000000
H    -2.343000000     7.084000000     1.576000000
C    -0.517000000     6.265000000     0.974000000
O    -0.466000000     7.139000000    -0.014000000
C     0.399000000     6.905000000    -1.092000000
C     0.058000000     5.980000000    -2.066000000
H    -0.799000000     5.333000000    -1.898000000
C     1.584000000     7.620000000    -1.244000000
H     1.835000000     8.406000000    -0.536000000
C     2.404000000     7.433000000    -2.352000000
H     3.327000000     7.997000000    -2.461000000
C     2.027000000     6.521000000    -3.295000000
H     2.718000000     6.329000000    -4.111000000
C     0.841000000     5.731000000    -3.190000000
O     0.442000000     4.989000000    -4.241000000
C     0.805000000     3.617000000    -4.464000000
C     0.121000000     2.893000000    -5.429000000
H    -0.577000000     3.344000000    -6.131000000
C     0.501000000     1.547000000    -5.614000000
O    -0.040000000     0.872000000    -6.710000000
C    -0.107000000    -0.457000000    -6.718000000
C     0.832000000    -1.266000000    -7.353000000
H     1.668000000    -0.761000000    -7.830000000
C     0.741000000    -2.656000000    -7.313000000
H     1.590000000    -3.242000000    -7.658000000
C    -0.394000000    -3.294000000    -6.739000000
H    -0.637000000    -4.353000000    -6.761000000
C    -1.331000000    -2.466000000    -6.121000000
C    -1.184000000    -1.068000000    -6.094000000
H    -1.930000000    -0.463000000    -5.585000000
C    -1.110000000     1.240000000    -1.821000000
H    -1.397000000     2.058000000    -2.477000000
C     0.103000000     1.380000000    -1.083000000
H     0.681000000     2.299000000    -1.139000000
C     0.493000000     0.328000000    -0.272000000
H     1.429000000     0.369000000     0.194000000
C    -0.301000000    -0.804000000    -0.161000000
H     0.100000000    -1.588000000     0.476000000
C    -1.411000000    -0.952000000    -1.031000000
H    -1.907000000    -1.920000000    -1.052000000
C    -1.858000000     0.092000000    -1.864000000
C    -3.045000000    -0.022000000    -2.859000000
O    -3.842000000    -0.935000000    -2.698000000
O    -3.432000000     1.062000000    -3.388000000
O    -5.983000000    -0.079000000    -1.496000000
H    -5.145000000    -0.330000000    -1.885000000
H    -6.633000000    -0.595000000    -1.972000000
O    -8.321000000    -1.618000000     0.348000000
H    -7.894000000    -1.477000000    -0.497000000
H    -7.624000000    -1.948000000     0.916000000
O    -6.451000000     4.244000000    -0.217000000
H    -6.603000000     4.533000000     0.683000000
H    -5.842000000     3.510000000    -0.133000000
O    -1.651000000     2.363000000    -8.738000000
H    -1.178000000     2.132000000    -7.938000000
H    -1.730000000     1.538000000    -9.216000000
O    -4.380000000    -3.663000000    -6.870000000
H    -5.147000000    -3.257000000    -6.466000000
H    -3.643000000    -3.365000000    -6.337000000
O    -3.239000000     5.686000000    -6.726000000
H    -3.234000000     5.019000000    -6.041000000
H    -3.626000000     6.456000000    -6.309000000
O    -3.515000000     3.153000000    -1.426000000
H    -3.438000000     2.595000000    -2.200000000
H    -4.089000000     2.666000000    -0.835000000
O    -5.031000000     1.871000000     0.294000000
H    -5.082000000     1.108000000    -0.280000000
H    -4.618000000     1.543000000     1.093000000
O    -3.051000000     2.990000000    -5.646000000
H    -3.891000000     2.667000000    -5.321000000
H    -2.402000000     2.602000000    -5.060000000
O    -4.457000000     5.889000000    -1.239000000
H    -5.196000000     5.439000000    -0.830000000
H    -3.854000000     5.187000000    -1.483000000
O    -5.473000000     1.560000000    -4.846000000
H    -4.777000000     1.345000000    -4.225000000
H    -5.795000000     2.414000000    -4.559000000
O    -5.519000000    -1.384000000    -5.017000000
H    -5.608000000    -0.434000000    -4.937000000
H    -4.816000000    -1.610000000    -4.407000000
O    -3.871000000    -2.038000000    -8.946000000
H    -3.976000000    -1.186000000    -8.523000000
H    -4.024000000    -2.674000000    -8.246000000
O    -7.785000000    -1.749000000    -2.672000000
H    -7.312000000    -1.815000000    -3.502000000
H    -8.709000000    -1.771000000    -2.921000000
O    -2.331000000     1.792000000     1.147000000
H    -1.636000000     1.218000000     0.827000000
H    -2.574000000     2.321000000     0.387000000
O    -8.037000000     1.484000000    -2.032000000
H    -7.151000000     1.331000000    -1.703000000
H    -8.592000000     0.913000000    -1.500000000
O    -6.307000000     4.073000000    -4.111000000
H    -6.571000000     4.983000000    -4.245000000
H    -6.492000000     3.903000000    -3.188000000
O    -7.520000000    -1.664000000    -6.795000000
H    -8.237000000    -1.261000000    -6.305000000
H    -6.828000000    -1.790000000    -6.145000000
O    -8.803000000     2.410000000    -5.335000000
H    -7.858000000     2.563000000    -5.338000000
H    -9.187000000     3.287000000    -5.321000000
