215
-1435.37473
C    -3.065000000    -1.492000000     3.487000000
H    -2.472000000    -0.877000000     4.158000000
C    -2.362000000    -2.379000000     2.701000000
C    -3.139000000    -3.006000000     1.709000000
H    -2.717000000    -3.809000000     1.111000000
C    -0.866000000    -2.685000000     2.914000000
O    -0.424000000    -2.325000000     4.232000000
H    -0.190000000    -2.082000000     2.289000000
O    -0.694000000    -4.036000000     2.475000000
C     0.493000000    -4.279000000     1.789000000
C     0.368000000    -4.653000000     0.490000000
H    -0.654000000    -4.882000000     0.198000000
C     1.365000000    -4.519000000    -0.465000000
O     1.138000000    -4.741000000    -1.798000000
C     2.603000000    -4.127000000    -0.104000000
C     3.720000000    -3.992000000    -1.094000000
H     4.638000000    -4.181000000    -0.533000000
C     3.666000000    -2.602000000    -1.783000000
C     4.465000000    -1.539000000    -1.263000000
H     5.103000000    -1.722000000    -0.402000000
H     3.696000000    -4.753000000    -1.876000000
C     2.814000000    -3.811000000     1.228000000
H     3.783000000    -3.442000000     1.553000000
C     1.807000000    -3.917000000     2.219000000
C     2.100000000    -3.444000000     3.657000000
H     3.129000000    -3.715000000     3.902000000
H     1.525000000    -4.048000000     4.362000000
C     1.936000000    -2.027000000     3.942000000
C     3.086000000    -1.165000000     3.762000000
H     4.056000000    -1.509000000     3.410000000
C     0.657000000    -1.551000000     4.336000000
C     0.496000000    -0.202000000     4.646000000
H    -0.517000000     0.134000000     4.850000000
C     1.630000000     0.671000000     4.514000000
O     1.405000000     1.987000000     4.510000000
C     1.212000000     2.766000000     3.307000000
C     0.127000000     3.790000000     3.319000000
C     0.182000000     4.966000000     2.618000000
H     1.126000000     5.163000000     2.116000000
C    -1.060000000     3.467000000     3.992000000
H    -0.999000000     2.697000000     4.757000000
O     2.473000000     3.339000000     2.956000000
H     0.951000000     2.042000000     2.521000000
C     2.873000000     0.144000000     4.104000000
C     4.001000000     1.181000000     3.810000000
H     4.993000000     0.787000000     4.044000000
H     3.914000000     2.032000000     4.489000000
C     3.909000000     1.589000000     2.307000000
C     4.690000000     0.988000000     1.224000000
H     5.368000000     0.158000000     1.407000000
C     3.184000000     2.708000000     1.981000000
C     3.084000000     3.217000000     0.667000000
H     2.590000000     4.170000000     0.499000000
C     3.779000000     2.573000000    -0.386000000
O     3.516000000     2.935000000    -1.690000000
C     2.677000000     2.125000000    -2.514000000
C     1.635000000     2.896000000    -3.294000000
C     1.102000000     4.133000000    -2.807000000
H     1.413000000     4.622000000    -1.887000000
C     0.986000000     2.342000000    -4.463000000
H     1.362000000     1.358000000    -4.732000000
O     3.452000000     1.312000000    -3.424000000
H     2.091000000     1.426000000    -1.900000000
C     4.588000000     1.430000000    -0.102000000
C     5.403000000     0.804000000    -1.162000000
H     6.296000000     0.318000000    -0.764000000
H     5.708000000     1.559000000    -1.890000000
C     4.610000000    -0.247000000    -1.874000000
C     3.716000000    -0.014000000    -3.015000000
C     2.878000000    -1.009000000    -3.555000000
H     2.153000000    -0.778000000    -4.332000000
C     2.867000000    -2.238000000    -2.899000000
O     1.865000000    -3.042000000    -3.388000000
C     0.740000000    -3.539000000    -2.543000000
H     0.519000000    -2.755000000    -1.803000000
C    -0.479000000    -3.733000000    -3.380000000
C    -1.479000000    -4.652000000    -2.940000000
H    -1.313000000    -5.339000000    -2.114000000
C    -0.728000000    -2.869000000    -4.456000000
H    -0.061000000    -2.032000000    -4.644000000
C    -1.891000000    -2.997000000    -5.176000000
O    -2.090000000    -2.199000000    -6.302000000
C    -2.808000000    -4.013000000    -4.846000000
H    -3.742000000    -4.044000000    -5.401000000
C    -2.637000000    -4.799000000    -3.684000000
O    -3.686000000    -5.657000000    -3.255000000
C    -4.198000000    -5.714000000    -1.984000000
C    -4.606000000    -4.545000000    -1.396000000
H    -4.556000000    -3.610000000    -1.948000000
C    -4.183000000    -6.926000000    -1.281000000
H    -3.886000000    -7.872000000    -1.727000000
C    -4.680000000    -6.860000000     0.001000000
H    -4.815000000    -7.801000000     0.529000000
C    -4.988000000    -5.691000000     0.687000000
H    -5.143000000    -5.669000000     1.762000000
C    -4.994000000    -4.523000000    -0.013000000
O    -5.313000000    -3.413000000     0.632000000
C    -4.512000000    -2.725000000     1.523000000
C    -5.161000000    -1.790000000     2.379000000
H    -6.232000000    -1.617000000     2.307000000
C    -4.400000000    -1.147000000     3.316000000
O    -4.986000000    -0.270000000     4.220000000
C    -4.405000000     0.648000000     5.062000000
C    -4.275000000     1.884000000     4.550000000
H    -4.666000000     2.150000000     3.572000000
C    -3.994000000     0.418000000     6.391000000
H    -4.261000000    -0.533000000     6.844000000
C    -3.384000000     1.386000000     7.160000000
H    -3.058000000     1.322000000     8.195000000
C    -3.143000000     2.639000000     6.570000000
H    -2.698000000     3.424000000     7.176000000
C    -3.552000000     2.871000000     5.273000000
O    -3.358000000     4.090000000     4.679000000
C    -2.168000000     4.332000000     3.948000000
C    -2.088000000     5.548000000     3.270000000
H    -2.961000000     6.150000000     3.029000000
C    -0.894000000     5.852000000     2.583000000
O    -1.050000000     6.954000000     1.679000000
C    -0.355000000     7.092000000     0.538000000
C    -0.938000000     6.408000000    -0.585000000
H    -1.833000000     5.799000000    -0.482000000
C     0.781000000     7.923000000     0.352000000
H     1.143000000     8.526000000     1.181000000
C     1.269000000     8.111000000    -0.906000000
H     2.020000000     8.888000000    -1.029000000
C     0.789000000     7.445000000    -1.981000000
H     1.235000000     7.586000000    -2.962000000
C    -0.280000000     6.519000000    -1.797000000
O    -0.701000000     5.767000000    -2.834000000
C     0.036000000     4.742000000    -3.458000000
C    -0.555000000     4.204000000    -4.636000000
H    -1.313000000     4.748000000    -5.194000000
C    -0.065000000     3.030000000    -5.114000000
O    -0.719000000     2.553000000    -6.279000000
C    -0.581000000     1.185000000    -6.815000000
C     0.559000000     0.762000000    -7.568000000
H     1.173000000     1.591000000    -7.912000000
C     0.738000000    -0.581000000    -7.879000000
H     1.624000000    -0.881000000    -8.431000000
C    -0.157000000    -1.549000000    -7.443000000
H     0.040000000    -2.594000000    -7.669000000
C    -1.254000000    -1.178000000    -6.682000000
C    -1.443000000     0.192000000    -6.371000000
H    -2.234000000     0.451000000    -5.672000000
C    -1.216000000     2.083000000    -1.218000000
H    -1.388000000     3.126000000    -1.472000000
C    -0.286000000     1.730000000    -0.209000000
H     0.139000000     2.567000000     0.341000000
C    -0.026000000     0.410000000     0.127000000
H     0.701000000     0.112000000     0.877000000
C    -0.814000000    -0.548000000    -0.436000000
H    -0.748000000    -1.576000000    -0.090000000
C    -1.723000000    -0.257000000    -1.442000000
H    -2.299000000    -1.089000000    -1.838000000
C    -1.978000000     1.097000000    -1.787000000
C    -3.116000000     1.383000000    -2.699000000
O    -3.668000000     0.549000000    -3.317000000
O    -3.733000000     2.462000000    -2.585000000
O    -6.204000000     4.319000000    -6.293000000
H    -5.496000000     4.908000000    -6.550000000
H    -5.765000000     3.498000000    -6.072000000
O    -9.365000000     1.521000000    -1.070000000
H    -9.481000000     2.324000000    -0.562000000
H    -8.565000000     1.670000000    -1.574000000
O    -6.414000000     1.635000000    -2.573000000
H    -6.562000000     1.578000000    -1.629000000
H    -5.468000000     1.745000000    -2.662000000
O    -9.048000000     0.449000000    -3.711000000
H    -9.982000000     0.380000000    -3.908000000
H    -8.993000000     0.321000000    -2.764000000
O    -4.118000000     5.137000000    -2.021000000
H    -3.406000000     5.707000000    -2.309000000
H    -3.813000000     4.252000000    -2.222000000
O    -6.733000000    -2.220000000    -2.249000000
H    -7.285000000    -1.447000000    -2.130000000
H    -6.869000000    -2.735000000    -1.454000000
O    -6.579000000     6.756000000    -2.228000000
H    -5.836000000     6.222000000    -1.947000000
H    -7.245000000     6.120000000    -2.492000000
O    -6.235000000    -3.308000000    -4.534000000
H    -6.744000000    -2.944000000    -3.810000000
H    -5.696000000    -2.578000000    -4.839000000
O    -4.772000000     2.392000000    -5.446000000
H    -3.850000000     2.484000000    -5.687000000
H    -4.779000000     2.469000000    -4.492000000
O    -5.283000000    -0.324000000    -7.428000000
H    -5.531000000    -0.139000000    -8.334000000
H    -5.822000000     0.270000000    -6.907000000
O    -3.863000000     6.175000000    -5.947000000
H    -4.420000000     6.256000000    -5.172000000
H    -3.690000000     7.078000000    -6.213000000
O    -4.696000000    -0.697000000    -1.261000000
H    -4.483000000    -0.465000000    -2.165000000
H    -5.474000000    -1.249000000    -1.332000000
O    -3.871000000     0.947000000     0.765000000
H    -4.193000000     0.542000000    -0.040000000
H    -3.216000000     0.332000000     1.097000000
O    -7.380000000     4.591000000    -3.632000000
H    -8.177000000     4.110000000    -3.852000000
H    -6.756000000     4.347000000    -4.315000000
O    -4.545000000    -1.215000000    -4.908000000
H    -4.542000000    -0.796000000    -5.769000000
H    -4.290000000    -0.520000000    -4.302000000
O    -3.479000000     2.385000000    -8.706000000
H    -3.923000000     1.565000000    -8.490000000
H    -4.188000000     2.990000000    -8.927000000
O    -4.504000000     4.351000000     0.819000000
H    -4.388000000     3.403000000     0.883000000
H    -4.375000000     4.546000000    -0.109000000
O    -6.530000000     1.514000000     0.190000000
H    -5.696000000     1.166000000     0.505000000
H    -7.068000000     1.597000000     0.978000000
O    -7.242000000     0.681000000    -5.715000000
H    -6.551000000     1.017000000    -5.144000000
H    -8.025000000     0.676000000    -5.165000000
