215
-1447.90809
C     4.543000000    -2.980000000    -1.775000000
H     4.127000000    -3.915000000    -1.408000000
C     4.525000000    -1.846000000    -0.958000000
C     4.955000000    -0.595000000    -1.544000000
H     4.787000000     0.331000000    -1.001000000
C     3.855000000    -1.865000000     0.451000000
O     3.969000000    -3.209000000     0.963000000
H     2.805000000    -1.542000000     0.392000000
O     4.581000000    -1.075000000     1.393000000
C     3.891000000    -0.386000000     2.380000000
C     3.604000000     1.011000000     2.150000000
H     4.006000000     1.479000000     1.256000000
C     2.770000000     1.734000000     2.945000000
O     2.506000000     3.064000000     2.559000000
C     2.261000000     1.114000000     4.095000000
C     1.292000000     1.836000000     5.038000000
H     1.241000000     1.253000000     5.961000000
C    -0.121000000     1.928000000     4.485000000
C    -1.112000000     1.009000000     4.904000000
H    -0.845000000     0.328000000     5.709000000
H     1.741000000     2.795000000     5.304000000
C     2.438000000    -0.271000000     4.250000000
H     1.860000000    -0.808000000     4.998000000
C     3.275000000    -1.047000000     3.432000000
C     3.488000000    -2.519000000     3.646000000
H     3.338000000    -2.736000000     4.706000000
H     4.519000000    -2.729000000     3.354000000
C     2.515000000    -3.402000000     2.828000000
C     1.241000000    -3.640000000     3.284000000
H     0.959000000    -3.321000000     4.285000000
C     2.816000000    -3.722000000     1.494000000
C     1.860000000    -4.332000000     0.637000000
H     1.999000000    -4.423000000    -0.437000000
C     0.561000000    -4.435000000     1.091000000
O    -0.468000000    -4.905000000     0.255000000
C    -1.219000000    -3.804000000    -0.211000000
C    -1.296000000    -3.853000000    -1.796000000
C    -2.251000000    -3.013000000    -2.361000000
H    -2.819000000    -2.377000000    -1.688000000
C    -0.321000000    -4.477000000    -2.627000000
H     0.472000000    -5.102000000    -2.224000000
O    -2.551000000    -3.893000000     0.338000000
H    -0.718000000    -2.849000000     0.007000000
C     0.258000000    -4.226000000     2.440000000
C    -1.129000000    -4.337000000     2.985000000
H    -1.081000000    -4.479000000     4.066000000
H    -1.581000000    -5.247000000     2.585000000
C    -2.113000000    -3.253000000     2.679000000
C    -2.387000000    -2.354000000     3.688000000
H    -1.825000000    -2.357000000     4.619000000
C    -2.814000000    -3.105000000     1.439000000
C    -3.737000000    -2.092000000     1.305000000
H    -4.333000000    -1.986000000     0.402000000
C    -3.892000000    -1.144000000     2.288000000
O    -4.536000000    -0.031000000     1.897000000
C    -3.837000000     1.162000000     1.521000000
C    -4.619000000     1.884000000     0.461000000
C    -5.299000000     1.194000000    -0.500000000
H    -5.410000000     0.120000000    -0.374000000
C    -4.522000000     3.247000000     0.281000000
H    -3.882000000     3.785000000     0.975000000
O    -3.812000000     2.014000000     2.717000000
H    -2.846000000     0.859000000     1.153000000
C    -3.239000000    -1.243000000     3.520000000
C    -3.273000000    -0.136000000     4.575000000
H    -2.992000000    -0.552000000     5.545000000
H    -4.279000000     0.273000000     4.686000000
C    -2.324000000     0.991000000     4.254000000
C    -2.681000000     2.048000000     3.454000000
C    -1.723000000     3.020000000     3.034000000
H    -2.001000000     3.837000000     2.373000000
C    -0.472000000     2.919000000     3.530000000
O     0.475000000     3.757000000     3.012000000
C     1.242000000     3.334000000     1.900000000
H     0.885000000     2.386000000     1.470000000
C     1.362000000     4.381000000     0.775000000
C     2.368000000     4.230000000    -0.146000000
H     3.115000000     3.474000000     0.079000000
C     0.337000000     5.259000000     0.481000000
H    -0.463000000     5.478000000     1.183000000
C     0.426000000     6.050000000    -0.623000000
O    -0.594000000     6.963000000    -0.963000000
C     1.453000000     5.825000000    -1.530000000
H     1.495000000     6.452000000    -2.417000000
C     2.544000000     4.977000000    -1.285000000
O     3.552000000     4.595000000    -2.174000000
C     4.633000000     3.775000000    -1.906000000
C     4.880000000     2.651000000    -2.719000000
H     4.106000000     2.374000000    -3.430000000
C     5.644000000     4.081000000    -1.028000000
H     5.586000000     4.986000000    -0.428000000
C     6.820000000     3.301000000    -0.843000000
H     7.651000000     3.497000000    -0.171000000
C     7.061000000     2.205000000    -1.729000000
H     7.973000000     1.614000000    -1.724000000
C     5.994000000     1.861000000    -2.576000000
O     5.975000000     0.719000000    -3.297000000
C     5.540000000    -0.540000000    -2.791000000
C     5.570000000    -1.718000000    -3.593000000
H     5.816000000    -1.574000000    -4.642000000
C     5.116000000    -2.921000000    -3.024000000
O     5.106000000    -4.038000000    -3.874000000
C     4.080000000    -4.935000000    -4.022000000
C     2.871000000    -4.533000000    -4.513000000
H     2.676000000    -3.518000000    -4.850000000
C     4.241000000    -6.269000000    -3.622000000
H     5.188000000    -6.504000000    -3.142000000
C     3.212000000    -7.195000000    -3.732000000
H     3.211000000    -8.228000000    -3.392000000
C     1.996000000    -6.794000000    -4.186000000
H     1.128000000    -7.434000000    -4.327000000
C     1.769000000    -5.440000000    -4.538000000
O     0.488000000    -4.905000000    -4.931000000
C    -0.445000000    -4.374000000    -4.017000000
C    -1.406000000    -3.569000000    -4.540000000
H    -1.287000000    -3.401000000    -5.607000000
C    -2.345000000    -2.909000000    -3.735000000
O    -3.352000000    -2.121000000    -4.317000000
C    -4.538000000    -1.796000000    -3.652000000
C    -4.930000000    -0.425000000    -3.468000000
H    -4.343000000     0.375000000    -3.912000000
C    -5.365000000    -2.827000000    -3.223000000
H    -5.054000000    -3.868000000    -3.191000000
C    -6.622000000    -2.577000000    -2.683000000
H    -7.287000000    -3.410000000    -2.468000000
C    -6.985000000    -1.262000000    -2.451000000
H    -7.938000000    -1.100000000    -1.952000000
C    -6.150000000    -0.223000000    -2.782000000
O    -6.579000000     1.034000000    -2.527000000
C    -5.973000000     1.846000000    -1.522000000
C    -5.906000000     3.212000000    -1.591000000
H    -6.373000000     3.836000000    -2.349000000
C    -5.167000000     3.954000000    -0.732000000
O    -5.141000000     5.339000000    -0.752000000
C    -4.088000000     6.122000000    -0.297000000
C    -4.416000000     7.171000000     0.553000000
H    -5.391000000     7.242000000     1.028000000
C    -3.493000000     8.150000000     0.958000000
H    -3.886000000     8.922000000     1.615000000
C    -2.177000000     8.117000000     0.463000000
H    -1.490000000     8.868000000     0.845000000
C    -1.823000000     6.993000000    -0.368000000
C    -2.778000000     6.099000000    -0.757000000
H    -2.469000000     5.315000000    -1.443000000
C    -1.701000000     1.467000000    -1.906000000
H    -2.640000000     1.753000000    -2.371000000
C    -1.756000000     0.399000000    -0.971000000
H    -2.691000000    -0.026000000    -0.614000000
C    -0.520000000     0.057000000    -0.353000000
H    -0.548000000    -0.610000000     0.474000000
C     0.657000000     0.632000000    -0.733000000
H     1.613000000     0.266000000    -0.369000000
C     0.659000000     1.527000000    -1.829000000
H     1.608000000     1.975000000    -2.110000000
C    -0.479000000     1.925000000    -2.431000000
C    -0.420000000     2.898000000    -3.576000000
O     0.685000000     3.178000000    -4.055000000
O    -1.434000000     3.452000000    -3.962000000
O     4.622000000     2.899000000    -8.668000000
H     4.726000000     2.012000000    -9.012000000
H     3.690000000     3.090000000    -8.776000000
O    -1.281000000     8.298000000    -5.081000000
H    -0.560000000     8.530000000    -4.496000000
H    -1.168000000     7.361000000    -5.241000000
O    -2.298000000     4.225000000    -8.812000000
H    -2.595000000     5.096000000    -8.546000000
H    -1.471000000     4.383000000    -9.268000000
O     2.287000000     8.644000000    -0.516000000
H     2.333000000     7.690000000    -0.585000000
H     2.258000000     8.815000000     0.425000000
O    -2.120000000     8.745000000    -7.518000000
H    -1.892000000     8.605000000    -6.599000000
H    -2.608000000     9.569000000    -7.521000000
O    -3.938000000     2.393000000    -7.577000000
H    -3.446000000     2.867000000    -8.248000000
H    -3.569000000     2.698000000    -6.749000000
O     2.183000000     5.186000000    -4.927000000
H     2.690000000     5.400000000    -4.143000000
H     1.825000000     4.316000000    -4.750000000
O     2.314000000    -0.410000000    -7.892000000
H     2.169000000     0.115000000    -7.105000000
H     1.904000000     0.093000000    -8.595000000
O     1.587000000     8.657000000    -4.235000000
H     2.087000000     9.056000000    -3.522000000
H     2.102000000     8.841000000    -5.020000000
O    -3.921000000     3.429000000    -5.145000000
H    -3.098000000     3.309000000    -4.672000000
H    -4.176000000     4.332000000    -4.957000000
O     5.019000000     0.954000000    -6.103000000
H     5.391000000     0.784000000    -5.238000000
H     4.078000000     0.823000000    -5.989000000
O     2.248000000     0.782000000    -4.907000000
H     1.734000000     0.085000000    -4.499000000
H     1.892000000     1.590000000    -4.539000000
O    -5.164000000     5.818000000    -4.410000000
H    -5.062000000     6.618000000    -4.924000000
H    -4.901000000     6.068000000    -3.524000000
O     0.812000000     1.345000000    -9.303000000
H     0.520000000     1.796000000    -8.511000000
H     0.843000000     2.031000000    -9.971000000
O     0.029000000     2.584000000    -7.012000000
H    -0.345000000     3.450000000    -7.172000000
H    -0.077000000     2.448000000    -6.070000000
O    -0.531000000     5.609000000    -4.983000000
H    -0.996000000     4.918000000    -4.511000000
H     0.393000000     5.456000000    -4.782000000
O     2.691000000     6.892000000    -7.091000000
H     2.435000000     6.557000000    -6.232000000
H     2.736000000     6.115000000    -7.648000000
O    -4.850000000    -0.279000000    -8.111000000
H    -4.671000000     0.622000000    -7.841000000
H    -4.092000000    -0.525000000    -8.641000000
O    -3.698000000     8.000000000    -3.356000000
H    -3.396000000     7.514000000    -4.123000000
H    -2.961000000     8.565000000    -3.125000000
