215
-1413.89654
C    -3.043000000    -0.404000000     4.496000000
H    -2.393000000     0.055000000     5.236000000
C    -2.532000000    -1.386000000     3.634000000
C    -3.335000000    -1.776000000     2.617000000
H    -2.975000000    -2.376000000     1.785000000
C    -1.028000000    -1.698000000     3.710000000
O    -0.377000000    -1.261000000     4.931000000
H    -0.634000000    -1.286000000     2.769000000
O    -0.886000000    -3.138000000     3.643000000
C     0.112000000    -3.714000000     2.939000000
C    -0.302000000    -4.335000000     1.775000000
H    -1.348000000    -4.565000000     1.593000000
C     0.560000000    -4.674000000     0.772000000
O     0.087000000    -5.068000000    -0.475000000
C     1.920000000    -4.374000000     0.984000000
C     3.030000000    -4.671000000    -0.142000000
H     4.021000000    -4.781000000     0.304000000
C     3.185000000    -3.444000000    -1.071000000
C     4.247000000    -2.543000000    -0.755000000
H     4.849000000    -2.609000000     0.148000000
H     2.705000000    -5.506000000    -0.768000000
C     2.320000000    -3.838000000     2.169000000
H     3.393000000    -3.668000000     2.215000000
C     1.432000000    -3.483000000     3.170000000
C     2.024000000    -2.837000000     4.392000000
H     3.075000000    -3.108000000     4.509000000
H     1.580000000    -3.206000000     5.319000000
C     1.971000000    -1.322000000     4.424000000
C     3.139000000    -0.599000000     4.111000000
H     4.075000000    -1.112000000     3.907000000
C     0.807000000    -0.603000000     4.762000000
C     0.804000000     0.798000000     4.670000000
H    -0.059000000     1.337000000     5.051000000
C     1.914000000     1.501000000     4.187000000
O     1.822000000     2.808000000     3.941000000
C     1.605000000     3.090000000     2.563000000
C     0.398000000     3.928000000     2.238000000
C     0.329000000     4.435000000     0.968000000
H     1.043000000     4.218000000     0.177000000
C    -0.535000000     4.213000000     3.170000000
H    -0.484000000     3.840000000     4.190000000
O     2.798000000     3.698000000     1.995000000
H     1.373000000     2.167000000     2.012000000
C     3.015000000     0.734000000     3.856000000
C     4.249000000     1.421000000     3.284000000
H     5.110000000     0.850000000     3.638000000
H     4.387000000     2.421000000     3.699000000
C     4.224000000     1.685000000     1.796000000
C     4.854000000     0.729000000     0.948000000
H     5.217000000    -0.208000000     1.364000000
C     3.616000000     2.796000000     1.220000000
C     3.671000000     2.922000000    -0.181000000
H     3.263000000     3.820000000    -0.639000000
C     4.200000000     1.955000000    -1.033000000
O     4.128000000     2.003000000    -2.401000000
C     3.152000000     1.165000000    -3.060000000
C     2.387000000     1.829000000    -4.279000000
C     2.062000000     3.178000000    -4.134000000
H     2.490000000     3.662000000    -3.259000000
C     1.976000000     1.043000000    -5.359000000
H     2.186000000    -0.020000000    -5.441000000
O     3.808000000    -0.083000000    -3.488000000
H     2.414000000     0.831000000    -2.316000000
C     4.864000000     0.869000000    -0.432000000
C     5.471000000    -0.289000000    -1.207000000
H     6.278000000    -0.687000000    -0.588000000
H     6.129000000    -0.111000000    -2.060000000
C     4.409000000    -1.353000000    -1.554000000
C     3.606000000    -1.189000000    -2.672000000
C     2.562000000    -2.105000000    -2.916000000
H     1.955000000    -1.976000000    -3.808000000
C     2.391000000    -3.260000000    -2.120000000
O     1.359000000    -4.072000000    -2.370000000
C     0.118000000    -3.999000000    -1.559000000
H     0.152000000    -3.058000000    -0.991000000
C    -1.185000000    -3.949000000    -2.357000000
C    -2.345000000    -4.695000000    -1.945000000
H    -2.366000000    -5.267000000    -1.021000000
C    -1.260000000    -3.188000000    -3.472000000
H    -0.405000000    -2.582000000    -3.761000000
C    -2.416000000    -3.114000000    -4.336000000
O    -2.532000000    -2.360000000    -5.490000000
C    -3.542000000    -3.652000000    -3.833000000
H    -4.477000000    -3.495000000    -4.365000000
C    -3.521000000    -4.427000000    -2.680000000
O    -4.636000000    -4.952000000    -2.104000000
C    -5.069000000    -4.628000000    -0.842000000
C    -5.117000000    -3.310000000    -0.403000000
H    -4.822000000    -2.573000000    -1.146000000
C    -5.468000000    -5.680000000    -0.016000000
H    -5.274000000    -6.712000000    -0.296000000
C    -5.915000000    -5.401000000     1.262000000
H    -6.161000000    -6.232000000     1.918000000
C    -5.822000000    -4.128000000     1.733000000
H    -6.145000000    -3.888000000     2.743000000
C    -5.421000000    -3.085000000     0.930000000
O    -5.427000000    -1.813000000     1.471000000
C    -4.707000000    -1.483000000     2.601000000
C    -5.222000000    -0.709000000     3.602000000
H    -6.282000000    -0.471000000     3.577000000
C    -4.397000000    -0.078000000     4.465000000
O    -4.840000000     0.989000000     5.300000000
C    -4.159000000     2.132000000     5.523000000
C    -3.841000000     3.058000000     4.473000000
H    -4.182000000     2.829000000     3.467000000
C    -3.735000000     2.438000000     6.847000000
H    -4.082000000     1.883000000     7.715000000
C    -3.120000000     3.664000000     7.145000000
H    -2.937000000     3.954000000     8.177000000
C    -2.695000000     4.477000000     6.041000000
H    -1.994000000     5.307000000     6.079000000
C    -3.025000000     4.136000000     4.721000000
O    -2.784000000     5.043000000     3.731000000
C    -1.710000000     4.878000000     2.840000000
C    -1.830000000     5.384000000     1.574000000
H    -2.791000000     5.776000000     1.253000000
C    -0.784000000     5.206000000     0.602000000
O    -1.059000000     5.583000000    -0.640000000
C    -0.080000000     5.997000000    -1.560000000
C    -0.093000000     5.363000000    -2.801000000
H    -0.984000000     4.822000000    -3.111000000
C     0.920000000     6.903000000    -1.233000000
H     1.012000000     7.292000000    -0.222000000
C     1.936000000     7.145000000    -2.168000000
H     2.703000000     7.837000000    -1.829000000
C     1.972000000     6.567000000    -3.407000000
H     2.750000000     6.824000000    -4.121000000
C     0.877000000     5.746000000    -3.728000000
O     0.962000000     5.119000000    -4.945000000
C     1.287000000     3.797000000    -5.065000000
C     0.831000000     3.089000000    -6.131000000
H     0.056000000     3.497000000    -6.774000000
C     1.050000000     1.676000000    -6.197000000
O     0.336000000     0.989000000    -7.193000000
C    -0.036000000    -0.331000000    -7.156000000
C     0.114000000    -1.136000000    -8.280000000
H     0.690000000    -0.663000000    -9.072000000
C    -0.376000000    -2.494000000    -8.355000000
H    -0.224000000    -3.051000000    -9.276000000
C    -1.287000000    -2.927000000    -7.399000000
H    -1.790000000    -3.888000000    -7.467000000
C    -1.478000000    -2.070000000    -6.305000000
C    -0.851000000    -0.873000000    -6.130000000
H    -1.251000000    -0.273000000    -5.316000000
C    -0.945000000     1.196000000    -1.729000000
H    -0.996000000     2.025000000    -2.430000000
C     0.049000000     1.035000000    -0.841000000
H     0.912000000     1.690000000    -0.756000000
C     0.110000000    -0.023000000     0.062000000
H     0.937000000    -0.112000000     0.754000000
C    -0.924000000    -0.994000000    -0.021000000
H    -0.896000000    -1.815000000     0.692000000
C    -1.971000000    -0.788000000    -0.890000000
H    -2.750000000    -1.521000000    -1.081000000
C    -2.013000000     0.336000000    -1.797000000
C    -3.154000000     0.468000000    -2.724000000
O    -4.065000000    -0.279000000    -2.706000000
O    -3.095000000     1.366000000    -3.549000000
O    -6.416000000    -0.136000000    -1.252000000
H    -5.558000000     0.032000000    -1.642000000
H    -6.241000000    -0.761000000    -0.549000000
O    -8.268000000    -2.996000000    -1.048000000
H    -8.746000000    -3.782000000    -0.782000000
H    -7.661000000    -3.302000000    -1.722000000
O    -2.924000000     3.054000000    -5.443000000
H    -3.001000000     2.591000000    -4.609000000
H    -2.927000000     2.361000000    -6.103000000
O    -8.183000000     4.429000000    -0.709000000
H    -8.425000000     3.865000000    -1.443000000
H    -7.280000000     4.185000000    -0.506000000
O    -4.208000000     1.790000000    -8.085000000
H    -4.145000000     1.936000000    -9.029000000
H    -4.334000000     0.845000000    -7.996000000
O    -3.224000000     5.992000000    -3.913000000
H    -3.428000000     5.084000000    -3.686000000
H    -3.936000000     6.258000000    -4.495000000
O    -4.428000000     6.249000000    -1.276000000
H    -3.783000000     6.034000000    -1.949000000
H    -4.605000000     5.417000000    -0.838000000
O    -4.613000000     3.793000000    -0.062000000
H    -4.070000000     3.036000000     0.158000000
H    -4.883000000     4.149000000     0.784000000
O    -3.804000000     3.726000000    -2.691000000
H    -3.740000000     2.875000000    -3.124000000
H    -4.044000000     3.518000000    -1.788000000
O    -5.793000000    -0.669000000    -7.952000000
H    -5.376000000    -0.471000000    -7.113000000
H    -6.391000000    -1.390000000    -7.758000000
O    -4.812000000     4.051000000    -6.964000000
H    -4.114000000     4.108000000    -6.311000000
H    -4.578000000     3.291000000    -7.498000000
O    -8.677000000     1.352000000    -5.782000000
H    -8.095000000     0.982000000    -5.118000000
H    -9.066000000     0.590000000    -6.211000000
O    -6.994000000     0.370000000    -4.037000000
H    -6.643000000     0.102000000    -3.187000000
H    -6.272000000     0.229000000    -4.649000000
O    -6.807000000    -2.944000000    -3.399000000
H    -7.554000000    -3.029000000    -3.991000000
H    -6.444000000    -2.080000000    -3.593000000
O    -3.073000000     1.797000000     1.107000000
H    -2.116000000     1.816000000     1.086000000
H    -3.285000000     1.004000000     1.601000000
O    -9.467000000     1.107000000    -1.941000000
H    -8.823000000     0.461000000    -1.651000000
H   -10.298000000     0.632000000    -1.947000000
O    -2.012000000     5.250000000    -6.480000000
H    -2.365000000     4.408000000    -6.192000000
H    -2.211000000     5.851000000    -5.763000000
O    -4.826000000    -0.770000000    -5.135000000
H    -4.570000000    -0.459000000    -4.267000000
H    -4.129000000    -1.375000000    -5.389000000
O    -8.877000000     3.149000000    -3.401000000
H    -9.106000000     2.439000000    -2.801000000
H    -8.702000000     2.711000000    -4.234000000
