215
-1445.15228
C    -3.735000000    -0.367000000     2.815000000
H    -3.214000000     0.533000000     3.130000000
C    -3.090000000    -1.566000000     2.842000000
C    -3.751000000    -2.711000000     2.403000000
H    -3.329000000    -3.713000000     2.411000000
C    -1.632000000    -1.612000000     3.340000000
O    -1.410000000    -0.810000000     4.475000000
H    -1.048000000    -1.331000000     2.451000000
O    -1.314000000    -3.015000000     3.623000000
C    -0.080000000    -3.506000000     3.175000000
C    -0.112000000    -4.211000000     1.945000000
H    -1.081000000    -4.342000000     1.470000000
C     1.040000000    -4.471000000     1.269000000
O     0.950000000    -4.975000000    -0.015000000
C     2.276000000    -4.049000000     1.802000000
C     3.582000000    -4.267000000     1.023000000
H     4.493000000    -4.274000000     1.626000000
C     3.771000000    -3.121000000    -0.071000000
C     4.583000000    -2.070000000     0.309000000
H     4.875000000    -1.957000000     1.350000000
H     3.534000000    -5.252000000     0.553000000
C     2.293000000    -3.320000000     3.009000000
H     3.230000000    -3.039000000     3.482000000
C     1.144000000    -3.096000000     3.693000000
C     1.239000000    -2.178000000     4.935000000
H     2.221000000    -2.273000000     5.402000000
H     0.501000000    -2.495000000     5.675000000
C     1.054000000    -0.681000000     4.614000000
C     2.148000000     0.134000000     4.478000000
H     3.160000000    -0.263000000     4.478000000
C    -0.272000000    -0.101000000     4.500000000
C    -0.419000000     1.245000000     4.379000000
H    -1.409000000     1.675000000     4.512000000
C     0.691000000     2.035000000     4.125000000
O     0.572000000     3.351000000     3.704000000
C     0.734000000     3.492000000     2.266000000
C    -0.362000000     4.341000000     1.693000000
C    -0.239000000     4.796000000     0.351000000
H     0.692000000     4.856000000    -0.206000000
C    -1.561000000     4.526000000     2.379000000
H    -1.707000000     4.116000000     3.375000000
O     2.076000000     4.067000000     2.033000000
H     0.602000000     2.467000000     1.887000000
C     1.987000000     1.475000000     4.222000000
C     3.230000000     2.366000000     3.997000000
H     4.044000000     2.124000000     4.683000000
H     2.996000000     3.377000000     4.338000000
C     3.551000000     2.359000000     2.503000000
C     4.486000000     1.463000000     1.956000000
H     4.982000000     0.833000000     2.690000000
C     2.921000000     3.233000000     1.602000000
C     3.192000000     3.096000000     0.241000000
H     2.761000000     3.773000000    -0.492000000
C     4.121000000     2.175000000    -0.206000000
O     4.366000000     2.220000000    -1.576000000
C     3.616000000     1.408000000    -2.391000000
C     3.039000000     1.962000000    -3.664000000
C     2.964000000     3.317000000    -3.809000000
H     3.431000000     3.955000000    -3.063000000
C     2.497000000     1.102000000    -4.651000000
H     2.576000000     0.018000000    -4.657000000
O     4.381000000     0.122000000    -2.650000000
H     2.714000000     1.197000000    -1.798000000
C     4.790000000     1.347000000     0.574000000
C     5.642000000     0.181000000    -0.032000000
H     6.321000000    -0.304000000     0.672000000
H     6.331000000     0.617000000    -0.758000000
C     4.750000000    -0.933000000    -0.577000000
C     4.262000000    -1.007000000    -1.847000000
C     3.548000000    -2.127000000    -2.288000000
H     3.002000000    -2.195000000    -3.225000000
C     3.247000000    -3.153000000    -1.376000000
O     2.207000000    -4.033000000    -1.734000000
C     0.952000000    -4.059000000    -1.059000000
H     0.773000000    -3.064000000    -0.625000000
C    -0.245000000    -4.232000000    -2.018000000
C    -1.335000000    -5.009000000    -1.624000000
H    -1.342000000    -5.465000000    -0.638000000
C    -0.268000000    -3.591000000    -3.264000000
H     0.547000000    -2.942000000    -3.572000000
C    -1.318000000    -3.700000000    -4.111000000
O    -1.322000000    -3.253000000    -5.420000000
C    -2.425000000    -4.529000000    -3.726000000
H    -3.282000000    -4.722000000    -4.366000000
C    -2.494000000    -5.038000000    -2.455000000
O    -3.543000000    -5.858000000    -2.104000000
C    -4.117000000    -5.905000000    -0.870000000
C    -4.546000000    -4.705000000    -0.179000000
H    -4.273000000    -3.713000000    -0.529000000
C    -4.470000000    -7.140000000    -0.401000000
H    -4.110000000    -8.037000000    -0.897000000
C    -5.310000000    -7.285000000     0.717000000
H    -5.620000000    -8.267000000     1.064000000
C    -5.699000000    -6.181000000     1.436000000
H    -6.383000000    -6.254000000     2.277000000
C    -5.320000000    -4.850000000     0.988000000
O    -5.799000000    -3.782000000     1.764000000
C    -5.091000000    -2.644000000     2.014000000
C    -5.685000000    -1.415000000     1.954000000
H    -6.695000000    -1.263000000     1.581000000
C    -5.015000000    -0.260000000     2.306000000
O    -5.602000000     0.979000000     2.309000000
C    -5.113000000     2.082000000     3.062000000
C    -4.617000000     3.171000000     2.410000000
H    -4.511000000     3.112000000     1.330000000
C    -5.436000000     2.134000000     4.425000000
H    -5.860000000     1.218000000     4.828000000
C    -5.265000000     3.339000000     5.068000000
H    -5.563000000     3.389000000     6.113000000
C    -4.646000000     4.428000000     4.462000000
H    -4.477000000     5.323000000     5.056000000
C    -4.384000000     4.332000000     3.071000000
O    -3.801000000     5.386000000     2.391000000
C    -2.626000000     5.187000000     1.774000000
C    -2.499000000     5.590000000     0.457000000
H    -3.260000000     6.093000000    -0.134000000
C    -1.316000000     5.376000000    -0.240000000
O    -1.282000000     5.824000000    -1.515000000
C    -0.182000000     6.284000000    -2.254000000
C     0.247000000     5.654000000    -3.383000000
H    -0.297000000     4.785000000    -3.745000000
C     0.502000000     7.358000000    -1.731000000
H     0.344000000     7.762000000    -0.734000000
C     1.588000000     7.828000000    -2.464000000
H     2.145000000     8.637000000    -1.998000000
C     2.062000000     7.133000000    -3.562000000
H     2.962000000     7.428000000    -4.095000000
C     1.465000000     6.004000000    -3.967000000
O     2.131000000     5.237000000    -4.971000000
C     2.179000000     3.878000000    -4.812000000
C     1.499000000     3.056000000    -5.704000000
H     0.873000000     3.568000000    -6.431000000
C     1.667000000     1.695000000    -5.587000000
O     0.827000000     0.887000000    -6.329000000
C     0.817000000    -0.448000000    -6.381000000
C     1.904000000    -1.136000000    -6.833000000
H     2.777000000    -0.570000000    -7.149000000
C     1.954000000    -2.520000000    -6.842000000
H     2.774000000    -3.168000000    -7.143000000
C     0.799000000    -3.174000000    -6.467000000
H     0.736000000    -4.258000000    -6.411000000
C    -0.346000000    -2.490000000    -6.055000000
C    -0.294000000    -1.125000000    -5.919000000
H    -1.155000000    -0.623000000    -5.485000000
C    -1.781000000     1.663000000    -1.272000000
H    -1.791000000     2.630000000    -1.769000000
C    -0.791000000     1.326000000    -0.393000000
H    -0.013000000     2.029000000    -0.105000000
C    -0.730000000     0.091000000     0.164000000
H     0.045000000    -0.234000000     0.843000000
C    -1.648000000    -0.829000000    -0.149000000
H    -1.579000000    -1.888000000     0.084000000
C    -2.657000000    -0.581000000    -1.031000000
H    -3.349000000    -1.382000000    -1.278000000
C    -2.759000000     0.675000000    -1.563000000
C    -3.789000000     1.040000000    -2.580000000
O    -4.578000000     0.229000000    -2.963000000
O    -3.822000000     2.164000000    -3.103000000
O    -4.565000000    -1.984000000    -4.243000000
H    -4.502000000    -1.251000000    -3.631000000
H    -3.700000000    -2.032000000    -4.650000000
O    -3.552000000    -1.733000000    -7.518000000
H    -3.367000000    -2.565000000    -7.081000000
H    -4.356000000    -1.894000000    -8.010000000
O    -4.077000000     4.738000000    -2.454000000
H    -3.194000000     5.108000000    -2.441000000
H    -3.948000000     3.819000000    -2.691000000
O    -6.838000000     2.789000000    -2.759000000
H    -5.906000000     2.597000000    -2.660000000
H    -6.945000000     2.984000000    -3.689000000
O    -6.213000000     0.303000000    -7.126000000
H    -6.440000000     1.215000000    -7.309000000
H    -5.300000000     0.336000000    -6.840000000
O    -4.644000000     5.961000000    -4.554000000
H    -4.638000000     5.439000000    -3.752000000
H    -5.566000000     5.999000000    -4.808000000
O    -8.073000000     1.047000000    -1.182000000
H    -7.788000000     1.815000000    -1.677000000
H    -7.324000000     0.452000000    -1.212000000
O    -5.900000000     6.337000000    -0.903000000
H    -6.251000000     6.838000000    -1.640000000
H    -5.336000000     5.678000000    -1.309000000
O    -9.629000000     0.247000000    -3.528000000
H    -8.832000000     0.343000000    -4.049000000
H    -9.420000000     0.664000000    -2.692000000
O    -8.009000000    -2.467000000    -3.884000000
H    -7.411000000    -2.959000000    -4.447000000
H    -7.693000000    -1.564000000    -3.930000000
O    -3.174000000     1.420000000    -8.341000000
H    -3.244000000     0.471000000    -8.242000000
H    -3.529000000     1.773000000    -7.525000000
O    -6.937000000    -0.032000000    -4.457000000
H    -6.103000000     0.189000000    -4.043000000
H    -6.736000000    -0.080000000    -5.391000000
O    -6.437000000    -1.501000000    -1.681000000
H    -5.700000000    -0.977000000    -1.993000000
H    -6.562000000    -2.165000000    -2.359000000
O    -9.232000000     4.672000000    -2.385000000
H    -8.474000000     4.088000000    -2.353000000
H    -9.635000000     4.590000000    -1.520000000
O    -8.508000000    -2.221000000    -0.138000000
H    -7.799000000    -1.758000000    -0.583000000
H    -9.162000000    -2.370000000    -0.821000000
O    -6.740000000     3.882000000    -5.446000000
H    -5.835000000     3.610000000    -5.598000000
H    -7.147000000     3.858000000    -6.312000000
O    -3.025000000     5.335000000    -6.581000000
H    -3.760000000     5.530000000    -7.162000000
H    -3.248000000     5.770000000    -5.758000000
O    -4.126000000     2.497000000    -6.051000000
H    -3.940000000     3.436000000    -6.064000000
H    -3.757000000     2.192000000    -5.223000000
O    -6.381000000    -4.533000000    -4.878000000
H    -5.752000000    -3.816000000    -4.965000000
H    -5.902000000    -5.307000000    -5.173000000
