215
-1454.46169
C     4.500000000    -3.219000000    -1.832000000
H     4.293000000    -4.194000000    -1.399000000
C     4.317000000    -2.064000000    -1.119000000
C     4.668000000    -0.811000000    -1.667000000
H     4.648000000     0.053000000    -1.006000000
C     3.852000000    -2.123000000     0.355000000
O     3.697000000    -3.489000000     0.803000000
H     2.888000000    -1.598000000     0.423000000
O     4.756000000    -1.405000000     1.363000000
C     4.079000000    -0.672000000     2.337000000
C     3.998000000     0.680000000     2.175000000
H     4.490000000     1.220000000     1.369000000
C     3.268000000     1.510000000     2.972000000
O     3.034000000     2.818000000     2.608000000
C     2.517000000     0.915000000     4.005000000
C     1.561000000     1.665000000     4.887000000
H     1.686000000     1.273000000     5.898000000
C     0.155000000     1.846000000     4.402000000
C    -0.837000000     1.002000000     4.838000000
H    -0.520000000     0.119000000     5.387000000
H     1.979000000     2.652000000     5.099000000
C     2.554000000    -0.409000000     4.275000000
H     2.029000000    -0.888000000     5.097000000
C     3.297000000    -1.235000000     3.357000000
C     3.338000000    -2.742000000     3.450000000
H     3.226000000    -3.084000000     4.481000000
H     4.316000000    -3.104000000     3.127000000
C     2.264000000    -3.471000000     2.708000000
C     1.027000000    -3.712000000     3.309000000
H     0.887000000    -3.445000000     4.354000000
C     2.501000000    -3.725000000     1.381000000
C     1.464000000    -4.185000000     0.564000000
H     1.760000000    -4.436000000    -0.452000000
C     0.227000000    -4.428000000     1.149000000
O    -0.830000000    -4.713000000     0.276000000
C    -1.548000000    -3.645000000    -0.159000000
C    -1.583000000    -3.717000000    -1.695000000
C    -2.641000000    -2.970000000    -2.296000000
H    -3.286000000    -2.447000000    -1.595000000
C    -0.651000000    -4.323000000    -2.574000000
H     0.062000000    -4.976000000    -2.078000000
O    -2.795000000    -3.663000000     0.501000000
H    -0.979000000    -2.738000000     0.093000000
C     0.003000000    -4.188000000     2.506000000
C    -1.365000000    -4.352000000     3.088000000
H    -1.284000000    -4.626000000     4.142000000
H    -1.821000000    -5.241000000     2.647000000
C    -2.208000000    -3.108000000     2.864000000
C    -2.393000000    -2.165000000     3.879000000
H    -1.844000000    -2.256000000     4.813000000
C    -2.954000000    -2.912000000     1.675000000
C    -3.862000000    -1.902000000     1.538000000
H    -4.309000000    -1.684000000     0.571000000
C    -3.943000000    -0.963000000     2.524000000
O    -4.600000000     0.231000000     2.263000000
C    -3.908000000     1.370000000     1.758000000
C    -4.604000000     2.113000000     0.616000000
C    -5.284000000     1.371000000    -0.351000000
H    -5.539000000     0.339000000    -0.126000000
C    -4.355000000     3.466000000     0.434000000
H    -3.832000000     3.980000000     1.237000000
O    -3.615000000     2.218000000     2.889000000
H    -2.943000000     1.135000000     1.287000000
C    -3.233000000    -1.068000000     3.685000000
C    -3.229000000     0.038000000     4.673000000
H    -3.095000000    -0.331000000     5.692000000
H    -4.246000000     0.435000000     4.693000000
C    -2.111000000     1.130000000     4.306000000
C    -2.420000000     2.190000000     3.426000000
C    -1.453000000     3.099000000     3.005000000
H    -1.649000000     3.976000000     2.393000000
C    -0.190000000     2.895000000     3.521000000
O     0.783000000     3.757000000     3.074000000
C     1.741000000     3.277000000     2.090000000
H     1.174000000     2.462000000     1.617000000
C     1.854000000     4.212000000     0.828000000
C     2.906000000     4.001000000    -0.044000000
H     3.664000000     3.251000000     0.170000000
C     0.949000000     5.297000000     0.665000000
H     0.076000000     5.417000000     1.302000000
C     1.024000000     6.036000000    -0.515000000
O     0.071000000     6.981000000    -0.823000000
C     2.073000000     5.839000000    -1.383000000
H     2.145000000     6.350000000    -2.339000000
C     2.979000000     4.800000000    -1.189000000
O     4.048000000     4.799000000    -2.035000000
C     5.027000000     3.806000000    -1.938000000
C     4.917000000     2.735000000    -2.834000000
H     4.051000000     2.712000000    -3.491000000
C     6.110000000     3.789000000    -1.016000000
H     6.182000000     4.678000000    -0.394000000
C     6.935000000     2.690000000    -0.910000000
H     7.744000000     2.714000000    -0.184000000
C     6.713000000     1.553000000    -1.657000000
H     7.382000000     0.702000000    -1.562000000
C     5.689000000     1.602000000    -2.656000000
O     5.407000000     0.501000000    -3.499000000
C     5.098000000    -0.698000000    -3.021000000
C     5.274000000    -1.898000000    -3.768000000
H     5.596000000    -1.807000000    -4.802000000
C     4.911000000    -3.103000000    -3.177000000
O     4.823000000    -4.244000000    -3.972000000
C     3.690000000    -5.001000000    -4.130000000
C     2.500000000    -4.387000000    -4.488000000
H     2.449000000    -3.301000000    -4.516000000
C     3.738000000    -6.338000000    -3.841000000
H     4.683000000    -6.736000000    -3.482000000
C     2.591000000    -7.023000000    -3.675000000
H     2.582000000    -8.076000000    -3.408000000
C     1.371000000    -6.486000000    -4.047000000
H     0.451000000    -7.054000000    -3.932000000
C     1.350000000    -5.186000000    -4.513000000
O     0.224000000    -4.570000000    -4.851000000
C    -0.749000000    -4.084000000    -4.016000000
C    -1.733000000    -3.206000000    -4.516000000
H    -1.645000000    -2.812000000    -5.525000000
C    -2.759000000    -2.738000000    -3.692000000
O    -3.743000000    -1.955000000    -4.213000000
C    -4.951000000    -1.669000000    -3.642000000
C    -5.223000000    -0.371000000    -3.184000000
H    -4.470000000     0.409000000    -3.265000000
C    -6.001000000    -2.597000000    -3.828000000
H    -5.780000000    -3.535000000    -4.330000000
C    -7.305000000    -2.184000000    -3.537000000
H    -8.149000000    -2.847000000    -3.705000000
C    -7.522000000    -0.892000000    -2.973000000
H    -8.515000000    -0.681000000    -2.585000000
C    -6.479000000    -0.010000000    -2.770000000
O    -6.731000000     1.282000000    -2.245000000
C    -5.807000000     1.973000000    -1.454000000
C    -5.568000000     3.338000000    -1.661000000
H    -6.086000000     3.869000000    -2.456000000
C    -4.792000000     4.100000000    -0.725000000
O    -4.572000000     5.465000000    -0.950000000
C    -3.484000000     6.142000000    -0.385000000
C    -3.871000000     7.153000000     0.540000000
H    -4.881000000     7.311000000     0.911000000
C    -2.851000000     8.011000000     1.022000000
H    -3.064000000     8.745000000     1.795000000
C    -1.575000000     7.855000000     0.578000000
H    -0.808000000     8.552000000     0.905000000
C    -1.203000000     6.882000000    -0.304000000
C    -2.163000000     5.982000000    -0.789000000
H    -1.855000000     5.157000000    -1.427000000
C    -1.360000000     1.303000000    -2.032000000
H    -2.251000000     1.428000000    -2.641000000
C    -1.423000000     0.654000000    -0.797000000
H    -2.297000000     0.116000000    -0.439000000
C    -0.213000000     0.420000000    -0.113000000
H    -0.289000000    -0.274000000     0.719000000
C     1.013000000     0.915000000    -0.562000000
H     1.937000000     0.703000000    -0.031000000
C     0.994000000     1.808000000    -1.631000000
H     1.920000000     2.305000000    -1.908000000
C    -0.161000000     1.876000000    -2.413000000
C    -0.124000000     2.536000000    -3.800000000
O     0.906000000     2.958000000    -4.268000000
O    -1.106000000     2.836000000    -4.450000000
O    -1.307000000     6.712000000    -3.805000000
H    -0.969000000     7.528000000    -3.435000000
H    -0.638000000     6.438000000    -4.431000000
O     3.747000000     6.876000000    -6.551000000
H     3.805000000     6.617000000    -7.471000000
H     4.270000000     6.223000000    -6.086000000
O    -2.826000000     3.510000000    -8.091000000
H    -3.088000000     4.078000000    -8.815000000
H    -2.793000000     4.090000000    -7.331000000
O    -2.490000000     6.814000000    -7.401000000
H    -1.772000000     6.231000000    -7.153000000
H    -2.581000000     7.411000000    -6.659000000
O    -5.002000000     1.772000000    -7.008000000
H    -4.337000000     2.108000000    -7.608000000
H    -4.625000000     1.898000000    -6.137000000
O     2.121000000     4.337000000    -6.036000000
H     2.643000000     4.937000000    -5.504000000
H     1.548000000     3.897000000    -5.409000000
O     2.709000000    -1.153000000    -7.928000000
H     2.015000000    -0.784000000    -7.383000000
H     2.421000000    -2.048000000    -8.110000000
O    -3.976000000     2.637000000    -4.721000000
H    -3.019000000     2.614000000    -4.685000000
H    -4.195000000     3.568000000    -4.688000000
O     4.792000000     0.340000000    -6.862000000
H     4.457000000     0.593000000    -6.002000000
H     4.099000000    -0.202000000    -7.240000000
O     0.752000000    -0.043000000    -6.310000000
H     0.735000000     0.886000000    -6.082000000
H    -0.100000000    -0.375000000    -6.028000000
O    -3.600000000     5.438000000    -3.907000000
H    -2.690000000     5.679000000    -4.079000000
H    -3.702000000     5.543000000    -2.961000000
O     2.968000000     4.052000000    -8.843000000
H     2.905000000     4.269000000    -7.913000000
H     2.060000000     3.936000000    -9.124000000
O    -1.971000000     1.512000000    -6.710000000
H    -2.350000000     2.165000000    -7.298000000
H    -1.738000000     2.004000000    -5.923000000
O    -0.963000000     1.226000000    -9.365000000
H    -0.168000000     0.741000000    -9.588000000
H    -1.045000000     1.128000000    -8.417000000
O     0.314000000     4.134000000    -9.622000000
H    -0.109000000     3.276000000    -9.645000000
H    -0.358000000     4.741000000    -9.930000000
O    -0.859000000     4.924000000    -6.269000000
H    -1.022000000     4.188000000    -5.678000000
H     0.095000000     4.991000000    -6.311000000
O     5.411000000     4.735000000    -5.498000000
H     5.530000000     4.224000000    -4.697000000
H     5.902000000     4.253000000    -6.164000000
O     1.207000000     7.718000000    -5.303000000
H     1.548000000     8.414000000    -4.742000000
H     1.965000000     7.428000000    -5.812000000
O    -2.956000000    -1.462000000    -7.401000000
H    -2.916000000    -0.525000000    -7.208000000
H    -2.769000000    -1.522000000    -8.338000000
