215
-1454.04309
C    -3.217000000    -0.721000000     3.964000000
H    -2.603000000     0.053000000     4.418000000
C    -2.600000000    -1.932000000     3.597000000
C    -3.454000000    -2.955000000     3.070000000
H    -3.052000000    -3.866000000     2.632000000
C    -1.084000000    -2.051000000     3.538000000
O    -0.359000000    -1.324000000     4.626000000
H    -0.740000000    -1.737000000     2.542000000
O    -0.567000000    -3.403000000     3.703000000
C     0.336000000    -3.929000000     2.843000000
C    -0.091000000    -4.461000000     1.661000000
H    -1.128000000    -4.785000000     1.640000000
C     0.849000000    -4.700000000     0.609000000
O     0.352000000    -5.077000000    -0.658000000
C     2.205000000    -4.431000000     0.760000000
C     3.113000000    -4.587000000    -0.405000000
H     4.099000000    -4.817000000     0.005000000
C     3.148000000    -3.318000000    -1.205000000
C     4.084000000    -2.344000000    -0.929000000
H     4.732000000    -2.520000000    -0.074000000
H     2.746000000    -5.385000000    -1.053000000
C     2.626000000    -3.844000000     1.941000000
H     3.675000000    -3.559000000     1.969000000
C     1.710000000    -3.624000000     3.016000000
C     2.187000000    -2.860000000     4.325000000
H     3.224000000    -3.115000000     4.552000000
H     1.549000000    -3.096000000     5.180000000
C     2.068000000    -1.295000000     4.218000000
C     3.225000000    -0.464000000     3.878000000
H     4.130000000    -1.032000000     3.676000000
C     0.827000000    -0.641000000     4.262000000
C     0.748000000     0.723000000     4.114000000
H    -0.216000000     1.221000000     4.170000000
C     1.884000000     1.488000000     3.815000000
O     1.612000000     2.840000000     3.566000000
C     1.721000000     3.351000000     2.266000000
C     0.584000000     4.364000000     2.101000000
C     0.727000000     5.596000000     1.441000000
H     1.706000000     5.766000000     1.001000000
C    -0.730000000     4.068000000     2.526000000
H    -0.860000000     3.085000000     2.971000000
O     3.057000000     3.872000000     1.918000000
H     1.392000000     2.499000000     1.654000000
C     3.123000000     0.897000000     3.680000000
C     4.318000000     1.704000000     3.174000000
H     5.178000000     1.099000000     3.467000000
H     4.311000000     2.617000000     3.774000000
C     4.312000000     1.947000000     1.659000000
C     4.711000000     0.910000000     0.827000000
H     5.237000000     0.044000000     1.220000000
C     3.879000000     3.111000000     1.086000000
C     3.726000000     3.236000000    -0.305000000
H     3.248000000     4.135000000    -0.685000000
C     4.145000000     2.168000000    -1.138000000
O     3.976000000     2.232000000    -2.530000000
C     2.843000000     1.377000000    -2.952000000
C     1.877000000     2.177000000    -3.840000000
C     1.794000000     3.577000000    -3.678000000
H     2.471000000     4.069000000    -2.984000000
C     0.988000000     1.482000000    -4.665000000
H     1.089000000     0.401000000    -4.732000000
O     3.278000000     0.150000000    -3.590000000
H     2.328000000     1.046000000    -2.039000000
C     4.726000000     1.035000000    -0.565000000
C     5.250000000    -0.147000000    -1.339000000
H     6.051000000    -0.557000000    -0.721000000
H     5.746000000     0.279000000    -2.214000000
C     4.221000000    -1.189000000    -1.725000000
C     3.362000000    -1.020000000    -2.834000000
C     2.396000000    -1.974000000    -3.085000000
H     1.772000000    -1.781000000    -3.954000000
C     2.305000000    -3.125000000    -2.293000000
O     1.311000000    -3.992000000    -2.601000000
C     0.210000000    -4.040000000    -1.666000000
H     0.128000000    -3.090000000    -1.118000000
C    -1.045000000    -4.196000000    -2.383000000
C    -2.060000000    -4.874000000    -1.797000000
H    -2.050000000    -5.210000000    -0.763000000
C    -1.268000000    -3.442000000    -3.515000000
H    -0.502000000    -2.767000000    -3.886000000
C    -2.442000000    -3.555000000    -4.235000000
O    -2.653000000    -2.791000000    -5.330000000
C    -3.490000000    -4.204000000    -3.692000000
H    -4.427000000    -4.181000000    -4.243000000
C    -3.327000000    -4.820000000    -2.424000000
O    -4.438000000    -5.365000000    -1.921000000
C    -4.653000000    -5.569000000    -0.525000000
C    -4.908000000    -4.489000000     0.248000000
H    -4.875000000    -3.470000000    -0.130000000
C    -4.614000000    -6.892000000    -0.001000000
H    -4.464000000    -7.816000000    -0.553000000
C    -4.995000000    -7.046000000     1.317000000
H    -4.822000000    -8.022000000     1.761000000
C    -5.425000000    -5.969000000     2.088000000
H    -5.745000000    -6.192000000     3.103000000
C    -5.256000000    -4.657000000     1.598000000
O    -5.653000000    -3.577000000     2.371000000
C    -4.810000000    -2.676000000     2.981000000
C    -5.370000000    -1.457000000     3.307000000
H    -6.449000000    -1.328000000     3.324000000
C    -4.559000000    -0.511000000     3.834000000
O    -5.154000000     0.690000000     4.166000000
C    -4.413000000     1.812000000     4.530000000
C    -4.125000000     2.761000000     3.572000000
H    -4.534000000     2.578000000     2.582000000
C    -3.876000000     1.961000000     5.812000000
H    -4.231000000     1.219000000     6.522000000
C    -3.198000000     3.153000000     6.138000000
H    -2.709000000     3.255000000     7.103000000
C    -2.893000000     4.011000000     5.155000000
H    -2.292000000     4.876000000     5.423000000
C    -3.329000000     3.812000000     3.869000000
O    -3.055000000     4.672000000     2.836000000
C    -1.794000000     4.929000000     2.353000000
C    -1.698000000     6.096000000     1.606000000
H    -2.585000000     6.688000000     1.395000000
C    -0.394000000     6.427000000     1.174000000
O    -0.159000000     7.379000000     0.249000000
C     0.574000000     7.309000000    -0.871000000
C     0.296000000     6.364000000    -1.878000000
H    -0.551000000     5.721000000    -1.650000000
C     1.764000000     7.989000000    -0.956000000
H     2.064000000     8.624000000    -0.126000000
C     2.517000000     8.005000000    -2.151000000
H     3.393000000     8.633000000    -2.296000000
C     2.072000000     7.243000000    -3.194000000
H     2.637000000     7.139000000    -4.117000000
C     0.995000000     6.368000000    -3.094000000
O     0.570000000     5.644000000    -4.219000000
C     0.793000000     4.242000000    -4.410000000
C    -0.075000000     3.560000000    -5.204000000
H    -0.947000000     4.109000000    -5.550000000
C    -0.017000000     2.187000000    -5.352000000
O    -0.899000000     1.665000000    -6.276000000
C    -1.050000000     0.327000000    -6.603000000
C    -0.092000000    -0.322000000    -7.449000000
H     0.657000000     0.295000000    -7.938000000
C    -0.144000000    -1.650000000    -7.722000000
H     0.521000000    -2.163000000    -8.412000000
C    -1.042000000    -2.459000000    -6.992000000
H    -1.020000000    -3.532000000    -7.166000000
C    -1.836000000    -1.910000000    -5.985000000
C    -1.826000000    -0.501000000    -5.790000000
H    -2.535000000    -0.008000000    -5.131000000
C    -1.025000000     1.695000000    -1.727000000
H    -1.425000000     2.592000000    -2.193000000
C     0.116000000     1.770000000    -0.923000000
H     0.488000000     2.790000000    -0.975000000
C     0.578000000     0.696000000    -0.163000000
H     1.448000000     0.777000000     0.429000000
C    -0.169000000    -0.463000000    -0.255000000
H     0.247000000    -1.327000000     0.257000000
C    -1.336000000    -0.612000000    -1.053000000
H    -1.832000000    -1.579000000    -1.078000000
C    -1.719000000     0.474000000    -1.817000000
C    -2.972000000     0.436000000    -2.656000000
O    -3.584000000    -0.584000000    -2.578000000
O    -3.456000000     1.430000000    -3.170000000
O    -4.517000000     0.049000000     0.106000000
H    -4.458000000    -0.214000000    -0.812000000
H    -5.250000000    -0.460000000     0.455000000
O    -3.518000000     3.435000000    -6.523000000
H    -3.521000000     2.584000000    -6.086000000
H    -4.253000000     3.908000000    -6.134000000
O    -6.326000000     3.589000000    -4.565000000
H    -6.512000000     3.007000000    -3.828000000
H    -6.408000000     3.030000000    -5.338000000
O    -4.310000000    -3.923000000    -7.537000000
H    -5.175000000    -3.653000000    -7.228000000
H    -3.696000000    -3.442000000    -6.981000000
O    -4.906000000     0.112000000    -8.057000000
H    -4.040000000    -0.004000000    -8.450000000
H    -5.505000000     0.140000000    -8.803000000
O    -3.192000000     5.619000000    -1.177000000
H    -3.316000000     5.232000000    -2.044000000
H    -3.596000000     4.994000000    -0.575000000
O    -4.916000000     3.515000000     0.264000000
H    -5.666000000     2.926000000     0.179000000
H    -4.157000000     2.933000000     0.291000000
O    -3.917000000     4.092000000    -3.243000000
H    -4.694000000     4.182000000    -3.794000000
H    -3.852000000     3.153000000    -3.071000000
O    -6.455000000     2.364000000    -7.050000000
H    -6.132000000     2.972000000    -7.716000000
H    -6.117000000     1.510000000    -7.321000000
O    -8.959000000    -0.883000000    -3.652000000
H    -9.074000000     0.065000000    -3.716000000
H    -9.470000000    -1.135000000    -2.883000000
O    -6.225000000     0.898000000    -2.687000000
H    -5.268000000     0.878000000    -2.667000000
H    -6.485000000    -0.019000000    -2.601000000
O    -5.807000000    -1.870000000    -2.284000000
H    -6.080000000    -2.242000000    -3.122000000
H    -5.008000000    -1.383000000    -2.487000000
O    -7.607000000    -1.169000000    -0.073000000
H    -7.102000000    -1.639000000    -0.736000000
H    -8.382000000    -0.855000000    -0.539000000
O    -2.724000000     1.884000000     0.933000000
H    -1.923000000     1.615000000     0.483000000
H    -3.307000000     1.129000000     0.856000000
O    -7.491000000     1.982000000    -0.165000000
H    -7.340000000     1.111000000    -0.530000000
H    -7.736000000     1.820000000     0.746000000
O    -7.501000000    -2.564000000    -7.019000000
H    -6.770000000    -2.340000000    -6.443000000
H    -8.278000000    -2.455000000    -6.471000000
O    -7.957000000     4.461000000    -1.530000000
H    -7.980000000     5.065000000    -0.788000000
H    -7.447000000     3.715000000    -1.216000000
O    -5.399000000    -1.135000000    -5.273000000
H    -4.824000000    -0.902000000    -4.543000000
H    -5.355000000    -0.381000000    -5.862000000
O    -9.452000000     1.827000000    -3.136000000
H   -10.291000000     1.946000000    -2.690000000
H    -8.807000000     2.203000000    -2.537000000
