215
-1457.31137
C    -3.263000000    -1.009000000     2.755000000
H    -2.649000000    -0.112000000     2.792000000
C    -2.687000000    -2.226000000     3.194000000
C    -3.459000000    -3.383000000     2.976000000
H    -3.108000000    -4.377000000     3.245000000
C    -1.342000000    -2.175000000     3.664000000
O    -1.183000000    -1.347000000     4.844000000
H    -0.714000000    -1.683000000     2.908000000
O    -0.783000000    -3.486000000     3.879000000
C     0.305000000    -3.813000000     3.148000000
C     0.175000000    -4.419000000     1.980000000
H    -0.809000000    -4.776000000     1.686000000
C     1.278000000    -4.502000000     1.162000000
O     1.031000000    -4.802000000    -0.174000000
C     2.549000000    -3.954000000     1.484000000
C     3.709000000    -3.900000000     0.452000000
H     4.708000000    -4.096000000     0.847000000
C     3.732000000    -2.578000000    -0.323000000
C     4.565000000    -1.488000000     0.055000000
H     5.154000000    -1.499000000     0.969000000
H     3.575000000    -4.715000000    -0.262000000
C     2.633000000    -3.236000000     2.705000000
H     3.421000000    -2.524000000     2.940000000
C     1.520000000    -3.264000000     3.586000000
C     1.550000000    -2.511000000     4.916000000
H     2.567000000    -2.682000000     5.273000000
H     0.903000000    -2.951000000     5.678000000
C     1.220000000    -1.056000000     4.677000000
C     2.307000000    -0.223000000     4.509000000
H     3.295000000    -0.668000000     4.602000000
C    -0.068000000    -0.526000000     4.747000000
C    -0.263000000     0.840000000     4.405000000
H    -1.230000000     1.337000000     4.402000000
C     0.868000000     1.589000000     4.040000000
O     0.746000000     2.949000000     3.803000000
C     0.803000000     3.424000000     2.443000000
C    -0.409000000     4.323000000     2.088000000
C    -0.309000000     5.274000000     1.031000000
H     0.653000000     5.379000000     0.536000000
C    -1.622000000     4.229000000     2.816000000
H    -1.725000000     3.523000000     3.637000000
O     2.110000000     4.076000000     2.163000000
H     0.763000000     2.532000000     1.800000000
C     2.146000000     1.083000000     4.187000000
C     3.379000000     1.941000000     3.867000000
H     4.196000000     1.516000000     4.453000000
H     3.234000000     2.819000000     4.500000000
C     3.634000000     2.211000000     2.381000000
C     4.592000000     1.476000000     1.691000000
H     5.113000000     0.693000000     2.235000000
C     3.088000000     3.269000000     1.666000000
C     3.317000000     3.481000000     0.324000000
H     2.863000000     4.349000000    -0.145000000
C     4.073000000     2.552000000    -0.362000000
O     4.154000000     2.718000000    -1.730000000
C     3.439000000     1.681000000    -2.461000000
C     2.720000000     2.264000000    -3.593000000
C     2.143000000     3.559000000    -3.503000000
H     2.248000000     4.059000000    -2.544000000
C     2.462000000     1.523000000    -4.770000000
H     2.859000000     0.516000000    -4.865000000
O     4.280000000     0.619000000    -2.898000000
H     2.757000000     1.250000000    -1.713000000
C     4.772000000     1.579000000     0.339000000
C     5.653000000     0.654000000    -0.447000000
H     6.474000000     0.307000000     0.183000000
H     6.156000000     1.131000000    -1.291000000
C     4.822000000    -0.467000000    -0.827000000
C     4.212000000    -0.501000000    -2.064000000
C     3.305000000    -1.527000000    -2.392000000
H     2.677000000    -1.502000000    -3.279000000
C     3.034000000    -2.524000000    -1.537000000
O     2.078000000    -3.419000000    -1.870000000
C     0.918000000    -3.719000000    -1.050000000
H     0.768000000    -2.805000000    -0.457000000
C    -0.341000000    -3.821000000    -1.925000000
C    -1.430000000    -4.650000000    -1.580000000
H    -1.309000000    -5.356000000    -0.762000000
C    -0.355000000    -3.044000000    -3.092000000
H     0.462000000    -2.349000000    -3.265000000
C    -1.496000000    -2.993000000    -3.895000000
O    -1.532000000    -2.177000000    -5.066000000
C    -2.573000000    -3.854000000    -3.636000000
H    -3.466000000    -3.832000000    -4.256000000
C    -2.549000000    -4.573000000    -2.442000000
O    -3.644000000    -5.428000000    -2.131000000
C    -3.933000000    -5.828000000    -0.866000000
C    -4.583000000    -5.024000000     0.043000000
H    -4.615000000    -3.971000000    -0.222000000
C    -3.958000000    -7.240000000    -0.566000000
H    -3.570000000    -7.918000000    -1.321000000
C    -4.350000000    -7.703000000     0.728000000
H    -4.126000000    -8.726000000     1.020000000
C    -4.951000000    -6.819000000     1.603000000
H    -5.384000000    -7.151000000     2.543000000
C    -4.998000000    -5.494000000     1.301000000
O    -5.425000000    -4.528000000     2.205000000
C    -4.717000000    -3.359000000     2.383000000
C    -5.245000000    -2.126000000     1.936000000
H    -6.181000000    -1.947000000     1.412000000
C    -4.458000000    -0.956000000     2.058000000
O    -4.826000000     0.192000000     1.365000000
C    -5.016000000     1.294000000     2.183000000
C    -4.240000000     2.419000000     2.157000000
H    -3.456000000     2.436000000     1.404000000
C    -6.094000000     1.303000000     3.166000000
H    -6.689000000     0.399000000     3.266000000
C    -6.379000000     2.398000000     3.985000000
H    -7.175000000     2.513000000     4.716000000
C    -5.521000000     3.495000000     3.862000000
H    -5.847000000     4.334000000     4.472000000
C    -4.455000000     3.533000000     3.020000000
O    -3.899000000     4.791000000     2.917000000
C    -2.722000000     4.971000000     2.364000000
C    -2.575000000     5.965000000     1.380000000
H    -3.430000000     6.517000000     1.000000000
C    -1.385000000     6.073000000     0.709000000
O    -1.357000000     6.950000000    -0.344000000
C    -0.402000000     6.957000000    -1.372000000
C    -0.442000000     6.048000000    -2.396000000
H    -1.175000000     5.253000000    -2.283000000
C     0.588000000     7.960000000    -1.363000000
H     0.641000000     8.618000000    -0.500000000
C     1.560000000     7.969000000    -2.332000000
H     2.286000000     8.774000000    -2.261000000
C     1.504000000     7.042000000    -3.378000000
H     2.301000000     7.080000000    -4.116000000
C     0.489000000     6.071000000    -3.429000000
O     0.443000000     5.179000000    -4.470000000
C     1.300000000     4.034000000    -4.537000000
C     1.073000000     3.257000000    -5.627000000
H     0.319000000     3.666000000    -6.294000000
C     1.608000000     1.957000000    -5.761000000
O     1.326000000     1.253000000    -6.935000000
C     0.984000000    -0.059000000    -6.826000000
C     1.769000000    -1.025000000    -7.387000000
H     2.629000000    -0.734000000    -7.985000000
C     1.527000000    -2.382000000    -7.149000000
H     2.144000000    -3.202000000    -7.505000000
C     0.456000000    -2.820000000    -6.285000000
H     0.203000000    -3.864000000    -6.118000000
C    -0.436000000    -1.839000000    -5.890000000
C    -0.172000000    -0.466000000    -6.112000000
H    -0.855000000     0.264000000    -5.684000000
C    -0.268000000     1.554000000    -1.250000000
H    -0.064000000     2.498000000    -1.750000000
C     0.534000000     1.091000000    -0.235000000
H     1.501000000     1.561000000    -0.074000000
C     0.216000000    -0.090000000     0.488000000
H     0.894000000    -0.414000000     1.236000000
C    -0.997000000    -0.764000000     0.156000000
H    -1.322000000    -1.625000000     0.735000000
C    -1.852000000    -0.289000000    -0.799000000
H    -2.748000000    -0.879000000    -0.979000000
C    -1.427000000     0.776000000    -1.640000000
C    -2.267000000     1.251000000    -2.766000000
O    -3.340000000     0.706000000    -2.951000000
O    -2.116000000     2.308000000    -3.382000000
O    -5.060000000    -1.110000000    -3.732000000
H    -4.287000000    -0.630000000    -3.436000000
H    -4.834000000    -1.409000000    -4.613000000
O    -3.822000000    -1.484000000    -6.393000000
H    -3.000000000    -1.837000000    -6.053000000
H    -4.178000000    -2.187000000    -6.937000000
O    -2.500000000     4.458000000    -4.719000000
H    -1.654000000     4.776000000    -5.036000000
H    -2.304000000     3.607000000    -4.327000000
O    -5.457000000     3.199000000    -3.959000000
H    -4.820000000     2.485000000    -3.929000000
H    -5.257000000     3.731000000    -3.190000000
O    -8.205000000     0.051000000    -5.524000000
H    -8.623000000     0.704000000    -6.086000000
H    -7.313000000    -0.021000000    -5.864000000
O    -6.173000000     4.094000000    -6.638000000
H    -6.055000000     3.715000000    -5.767000000
H    -6.642000000     4.913000000    -6.482000000
O     0.037000000     1.555000000    -9.844000000
H    -0.448000000     1.954000000    -9.122000000
H     0.524000000     0.838000000    -9.439000000
O    -6.285000000     4.397000000    -0.137000000
H    -6.044000000     5.170000000    -0.646000000
H    -5.801000000     3.680000000    -0.546000000
O    -3.821000000     6.844000000    -4.634000000
H    -4.206000000     6.442000000    -5.413000000
H    -3.582000000     6.104000000    -4.076000000
O    -1.616000000     2.679000000    -7.733000000
H    -2.225000000     3.378000000    -7.971000000
H    -2.132000000     2.090000000    -7.182000000
O    -5.571000000     6.069000000    -2.247000000
H    -5.425000000     6.886000000    -1.770000000
H    -6.450000000     6.159000000    -2.614000000
O    -8.985000000     1.216000000    -0.431000000
H    -8.481000000     1.135000000    -1.241000000
H    -8.751000000     2.078000000    -0.088000000
O    -6.000000000     0.696000000    -7.003000000
H    -5.283000000     0.228000000    -7.431000000
H    -5.566000000     1.360000000    -6.467000000
O    -6.979000000     0.444000000    -2.648000000
H    -6.028000000     0.335000000    -2.677000000
H    -7.308000000    -0.144000000    -3.327000000
O    -4.607000000     2.227000000    -1.254000000
H    -3.906000000     1.810000000    -1.756000000
H    -4.873000000     1.563000000    -0.617000000
O    -8.531000000     2.834000000    -3.417000000
H    -8.241000000     2.885000000    -4.328000000
H    -7.726000000     2.700000000    -2.916000000
O    -3.572000000     4.710000000    -7.287000000
H    -4.432000000     4.347000000    -7.076000000
H    -3.100000000     4.707000000    -6.454000000
O    -3.184000000     1.393000000    -5.729000000
H    -2.975000000     1.522000000    -4.804000000
H    -3.139000000     0.445000000    -5.854000000
O    -6.437000000    -3.144000000    -2.715000000
H    -5.970000000    -2.367000000    -3.022000000
H    -6.254000000    -3.811000000    -3.376000000
