215
-1441.01678
C    -4.310000000    -0.996000000     2.712000000
H    -4.024000000    -0.152000000     3.334000000
C    -3.503000000    -2.122000000     2.494000000
C    -3.980000000    -3.232000000     1.713000000
H    -3.461000000    -4.168000000     1.523000000
C    -2.102000000    -2.212000000     2.990000000
O    -1.927000000    -1.701000000     4.343000000
H    -1.472000000    -1.585000000     2.342000000
O    -1.580000000    -3.549000000     2.999000000
C    -0.315000000    -3.816000000     2.462000000
C    -0.238000000    -4.249000000     1.139000000
H    -1.178000000    -4.521000000     0.667000000
C     1.082000000    -4.422000000     0.615000000
O     1.101000000    -4.814000000    -0.705000000
C     2.208000000    -4.220000000     1.419000000
C     3.586000000    -4.321000000     0.768000000
H     4.366000000    -4.443000000     1.522000000
C     3.857000000    -3.026000000    -0.025000000
C     4.471000000    -1.926000000     0.618000000
H     4.731000000    -1.912000000     1.673000000
H     3.682000000    -5.195000000     0.121000000
C     2.060000000    -3.815000000     2.713000000
H     2.950000000    -3.639000000     3.311000000
C     0.838000000    -3.634000000     3.300000000
C     0.710000000    -3.010000000     4.692000000
H     1.639000000    -3.214000000     5.228000000
H    -0.106000000    -3.514000000     5.214000000
C     0.481000000    -1.516000000     4.707000000
C     1.600000000    -0.639000000     4.740000000
H     2.591000000    -1.085000000     4.772000000
C    -0.835000000    -0.988000000     4.515000000
C    -1.029000000     0.438000000     4.563000000
H    -2.043000000     0.811000000     4.444000000
C     0.081000000     1.310000000     4.517000000
O    -0.144000000     2.632000000     4.232000000
C     0.248000000     3.127000000     2.961000000
C    -0.689000000     4.079000000     2.215000000
C    -0.278000000     5.144000000     1.398000000
H     0.793000000     5.279000000     1.275000000
C    -2.075000000     3.857000000     2.341000000
H    -2.337000000     2.960000000     2.897000000
O     1.555000000     3.716000000     2.945000000
H     0.363000000     2.198000000     2.384000000
C     1.382000000     0.755000000     4.607000000
C     2.614000000     1.616000000     4.652000000
H     3.405000000     1.274000000     5.323000000
H     2.372000000     2.563000000     5.140000000
C     3.186000000     1.843000000     3.265000000
C     4.164000000     1.038000000     2.632000000
H     4.542000000     0.148000000     3.129000000
C     2.615000000     2.949000000     2.492000000
C     2.996000000     3.121000000     1.124000000
H     2.543000000     3.971000000     0.620000000
C     3.967000000     2.248000000     0.598000000
O     4.262000000     2.358000000    -0.777000000
C     3.615000000     1.471000000    -1.711000000
C     2.925000000     2.300000000    -2.866000000
C     2.847000000     3.676000000    -2.755000000
H     3.447000000     4.196000000    -2.013000000
C     2.287000000     1.633000000    -3.948000000
H     2.344000000     0.552000000    -4.052000000
O     4.602000000     0.485000000    -2.162000000
H     2.747000000     1.074000000    -1.164000000
C     4.491000000     1.171000000     1.325000000
C     5.544000000     0.269000000     0.709000000
H     6.114000000    -0.207000000     1.509000000
H     6.198000000     0.916000000     0.120000000
C     4.863000000    -0.797000000    -0.082000000
C     4.586000000    -0.727000000    -1.482000000
C     3.860000000    -1.773000000    -2.110000000
H     3.590000000    -1.763000000    -3.163000000
C     3.498000000    -2.846000000    -1.346000000
O     2.725000000    -3.736000000    -2.107000000
C     1.375000000    -3.825000000    -1.690000000
H     1.148000000    -2.812000000    -1.326000000
C     0.355000000    -4.060000000    -2.806000000
C    -0.976000000    -4.341000000    -2.557000000
H    -1.261000000    -4.567000000    -1.533000000
C     0.718000000    -3.658000000    -4.120000000
H     1.752000000    -3.397000000    -4.334000000
C    -0.215000000    -3.601000000    -5.161000000
O     0.136000000    -3.073000000    -6.439000000
C    -1.551000000    -3.875000000    -4.913000000
H    -2.296000000    -3.711000000    -5.688000000
C    -1.923000000    -4.327000000    -3.582000000
O    -3.224000000    -4.502000000    -3.389000000
C    -3.801000000    -5.092000000    -2.308000000
C    -4.584000000    -4.361000000    -1.489000000
H    -4.782000000    -3.363000000    -1.870000000
C    -3.573000000    -6.495000000    -2.158000000
H    -2.946000000    -7.130000000    -2.779000000
C    -4.079000000    -7.060000000    -1.026000000
H    -3.827000000    -8.073000000    -0.724000000
C    -4.774000000    -6.245000000    -0.076000000
H    -5.142000000    -6.714000000     0.833000000
C    -5.124000000    -4.979000000    -0.388000000
O    -5.829000000    -4.307000000     0.569000000
C    -5.256000000    -3.229000000     1.272000000
C    -6.045000000    -2.132000000     1.571000000
H    -7.094000000    -2.139000000     1.285000000
C    -5.567000000    -0.966000000     2.186000000
O    -6.471000000     0.000000000     2.517000000
C    -6.140000000     1.294000000     2.906000000
C    -5.392000000     2.156000000     2.101000000
H    -5.091000000     1.825000000     1.111000000
C    -6.707000000     1.783000000     4.053000000
H    -7.363000000     1.141000000     4.634000000
C    -6.346000000     3.075000000     4.514000000
H    -6.824000000     3.471000000     5.407000000
C    -5.459000000     3.864000000     3.821000000
H    -5.307000000     4.898000000     4.120000000
C    -5.038000000     3.464000000     2.563000000
O    -4.379000000     4.310000000     1.675000000
C    -3.025000000     4.582000000     1.642000000
C    -2.603000000     5.677000000     0.948000000
H    -3.343000000     6.342000000     0.508000000
C    -1.213000000     5.992000000     0.860000000
O    -0.912000000     6.946000000    -0.045000000
C     0.294000000     7.079000000    -0.690000000
C     0.420000000     6.634000000    -1.956000000
H    -0.390000000     6.080000000    -2.423000000
C     1.323000000     7.865000000    -0.108000000
H     1.168000000     8.094000000     0.944000000
C     2.514000000     8.081000000    -0.814000000
H     3.346000000     8.596000000    -0.340000000
C     2.726000000     7.427000000    -2.031000000
H     3.714000000     7.454000000    -2.483000000
C     1.700000000     6.653000000    -2.553000000
O     2.031000000     5.844000000    -3.597000000
C     1.999000000     4.438000000    -3.574000000
C     1.350000000     3.693000000    -4.599000000
H     0.927000000     4.238000000    -5.440000000
C     1.493000000     2.347000000    -4.813000000
O     0.880000000     1.662000000    -5.965000000
C     1.222000000     0.439000000    -6.449000000
C     2.483000000     0.269000000    -7.052000000
H     3.145000000     1.113000000    -7.230000000
C     2.861000000    -0.970000000    -7.526000000
H     3.834000000    -1.145000000    -7.980000000
C     2.086000000    -2.137000000    -7.240000000
H     2.519000000    -3.079000000    -7.566000000
C     0.824000000    -1.911000000    -6.667000000
C     0.405000000    -0.672000000    -6.289000000
H    -0.570000000    -0.638000000    -5.810000000
C    -0.895000000     2.074000000    -1.266000000
H    -1.144000000     2.970000000    -1.828000000
C     0.337000000     1.875000000    -0.620000000
H     1.203000000     2.530000000    -0.678000000
C     0.508000000     0.701000000     0.138000000
H     1.541000000     0.430000000     0.536000000
C    -0.507000000    -0.220000000     0.336000000
H    -0.393000000    -1.091000000     0.977000000
C    -1.718000000    -0.018000000    -0.350000000
H    -2.517000000    -0.690000000    -0.047000000
C    -1.875000000     1.156000000    -1.134000000
C    -3.229000000     1.476000000    -1.766000000
O    -3.968000000     0.641000000    -2.202000000
O    -3.613000000     2.637000000    -1.742000000
O    -3.310000000    -0.932000000    -4.140000000
H    -2.828000000    -1.539000000    -3.578000000
H    -3.657000000    -0.272000000    -3.539000000
O    -2.859000000     4.681000000    -3.581000000
H    -3.236000000     5.444000000    -3.144000000
H    -2.930000000     3.977000000    -2.937000000
O    -5.208000000     4.075000000    -6.300000000
H    -6.042000000     4.479000000    -6.541000000
H    -5.132000000     3.317000000    -6.881000000
O    -2.159000000     6.700000000    -5.664000000
H    -1.262000000     6.684000000    -5.997000000
H    -2.221000000     5.925000000    -5.105000000
O    -6.119000000     3.185000000    -0.793000000
H    -6.184000000     3.354000000    -1.733000000
H    -5.179000000     3.165000000    -0.617000000
O    -8.830000000    -0.060000000     0.402000000
H    -7.967000000     0.027000000    -0.003000000
H    -8.682000000    -0.622000000     1.163000000
O    -3.290000000     7.041000000    -2.116000000
H    -2.954000000     7.815000000    -2.568000000
H    -2.929000000     7.104000000    -1.232000000
O    -4.808000000     2.332000000    -8.048000000
H    -5.294000000     2.143000000    -8.850000000
H    -4.505000000     1.476000000    -7.745000000
O    -3.647000000    -0.203000000    -6.917000000
H    -4.081000000    -0.960000000    -7.312000000
H    -3.487000000    -0.465000000    -6.010000000
O    -6.137000000    -2.441000000    -4.726000000
H    -5.355000000    -1.889000000    -4.725000000
H    -6.857000000    -1.834000000    -4.897000000
O    -8.063000000     3.291000000     1.322000000
H    -8.577000000     2.496000000     1.458000000
H    -7.542000000     3.109000000     0.540000000
O    -7.556000000     1.614000000    -3.543000000
H    -6.824000000     2.227000000    -3.476000000
H    -7.374000000     0.951000000    -2.877000000
O    -6.534000000    -0.005000000    -1.222000000
H    -5.649000000     0.338000000    -1.340000000
H    -6.557000000    -0.799000000    -1.756000000
O    -7.543000000     5.545000000    -1.854000000
H    -7.045000000     4.828000000    -1.463000000
H    -7.596000000     6.206000000    -1.163000000
O    -6.725000000     0.191000000    -6.204000000
H    -6.991000000     0.224000000    -7.123000000
H    -5.993000000     0.804000000    -6.144000000
O    -6.127000000     6.536000000    -3.800000000
H    -5.270000000     6.690000000    -3.402000000
H    -6.667000000     6.201000000    -3.085000000
O    -5.648000000     3.518000000    -3.235000000
H    -4.790000000     3.094000000    -3.217000000
H    -5.808000000     3.696000000    -4.161000000
O    -2.249000000     3.432000000    -6.321000000
H    -2.296000000     3.444000000    -5.365000000
H    -3.096000000     3.775000000    -6.607000000
O    -6.672000000     5.937000000     1.297000000
H    -6.957000000     5.024000000     1.252000000
H    -5.748000000     5.912000000     1.049000000
