215
-1444.10773
C    -3.628000000    -2.324000000     2.357000000
H    -3.391000000    -1.310000000     2.667000000
C    -2.613000000    -3.203000000     2.475000000
C    -2.751000000    -4.528000000     1.950000000
H    -1.938000000    -5.249000000     1.975000000
C    -1.238000000    -2.849000000     2.943000000
O    -1.328000000    -1.964000000     4.121000000
H    -0.892000000    -2.251000000     2.087000000
O    -0.299000000    -3.945000000     3.120000000
C     0.937000000    -3.787000000     2.718000000
C     1.163000000    -4.317000000     1.440000000
H     0.349000000    -4.850000000     0.956000000
C     2.410000000    -4.106000000     0.857000000
O     2.370000000    -4.269000000    -0.484000000
C     3.416000000    -3.345000000     1.493000000
C     4.758000000    -2.915000000     0.786000000
H     5.560000000    -2.826000000     1.522000000
C     4.530000000    -1.582000000     0.032000000
C     4.828000000    -0.393000000     0.670000000
H     5.217000000    -0.367000000     1.685000000
H     5.041000000    -3.753000000     0.145000000
C     3.160000000    -2.832000000     2.783000000
H     3.921000000    -2.237000000     3.282000000
C     1.900000000    -3.037000000     3.414000000
C     1.554000000    -2.358000000     4.692000000
H     2.432000000    -2.221000000     5.327000000
H     0.872000000    -2.985000000     5.271000000
C     0.873000000    -0.989000000     4.550000000
C     1.565000000     0.216000000     4.726000000
H     2.635000000     0.176000000     4.913000000
C    -0.510000000    -0.867000000     4.295000000
C    -1.125000000     0.388000000     4.173000000
H    -2.174000000     0.301000000     3.901000000
C    -0.365000000     1.530000000     4.281000000
O    -0.980000000     2.761000000     4.089000000
C    -0.782000000     3.239000000     2.793000000
C    -2.158000000     3.737000000     2.248000000
C    -2.225000000     4.792000000     1.357000000
H    -1.293000000     5.291000000     1.105000000
C    -3.404000000     3.144000000     2.709000000
H    -3.371000000     2.357000000     3.459000000
O     0.191000000     4.242000000     2.784000000
H    -0.577000000     2.403000000     2.109000000
C     1.031000000     1.479000000     4.537000000
C     1.913000000     2.692000000     4.547000000
H     2.782000000     2.435000000     5.156000000
H     1.394000000     3.512000000     5.047000000
C     2.324000000     3.051000000     3.133000000
C     3.546000000     2.566000000     2.657000000
H     4.247000000     1.985000000     3.251000000
C     1.438000000     3.869000000     2.315000000
C     1.793000000     4.139000000     1.038000000
H     1.131000000     4.701000000     0.384000000
C     2.988000000     3.690000000     0.526000000
O     3.182000000     3.949000000    -0.806000000
C     2.914000000     2.794000000    -1.674000000
C     2.257000000     3.227000000    -2.977000000
C     1.425000000     4.371000000    -2.992000000
H     1.330000000     4.913000000    -2.054000000
C     2.385000000     2.556000000    -4.165000000
H     2.991000000     1.655000000    -4.217000000
O     4.037000000     2.013000000    -1.977000000
H     2.225000000     2.143000000    -1.116000000
C     3.878000000     2.815000000     1.310000000
C     5.061000000     2.178000000     0.620000000
H     5.788000000     2.012000000     1.418000000
H     5.504000000     2.784000000    -0.173000000
C     4.685000000     0.851000000     0.039000000
C     4.221000000     0.867000000    -1.308000000
C     3.850000000    -0.339000000    -1.959000000
H     3.475000000    -0.151000000    -2.962000000
C     3.984000000    -1.537000000    -1.277000000
O     3.432000000    -2.625000000    -1.807000000
C     2.191000000    -3.107000000    -1.268000000
H     1.721000000    -2.280000000    -0.718000000
C     1.224000000    -3.438000000    -2.424000000
C     0.211000000    -4.388000000    -2.165000000
H     0.113000000    -5.087000000    -1.338000000
C     1.264000000    -2.700000000    -3.614000000
H     2.021000000    -1.935000000    -3.762000000
C     0.323000000    -2.922000000    -4.589000000
O     0.361000000    -2.230000000    -5.826000000
C    -0.624000000    -3.952000000    -4.418000000
H    -1.299000000    -4.201000000    -5.233000000
C    -0.682000000    -4.697000000    -3.241000000
O    -1.587000000    -5.661000000    -3.210000000
C    -2.030000000    -6.395000000    -2.147000000
C    -2.677000000    -5.846000000    -1.079000000
H    -2.743000000    -4.761000000    -1.054000000
C    -2.023000000    -7.782000000    -2.402000000
H    -1.522000000    -8.238000000    -3.252000000
C    -2.731000000    -8.536000000    -1.471000000
H    -2.724000000    -9.620000000    -1.551000000
C    -3.357000000    -8.024000000    -0.371000000
H    -3.892000000    -8.723000000     0.267000000
C    -3.341000000    -6.622000000    -0.116000000
O    -4.226000000    -6.075000000     0.769000000
C    -3.997000000    -4.894000000     1.457000000
C    -5.079000000    -3.996000000     1.483000000
H    -6.072000000    -4.314000000     1.176000000
C    -4.823000000    -2.682000000     1.881000000
O    -5.844000000    -1.770000000     2.018000000
C    -5.750000000    -0.659000000     2.787000000
C    -5.795000000     0.623000000     2.171000000
H    -5.822000000     0.774000000     1.095000000
C    -5.639000000    -0.734000000     4.177000000
H    -5.719000000    -1.713000000     4.643000000
C    -5.537000000     0.473000000     4.932000000
H    -5.527000000     0.350000000     6.012000000
C    -5.677000000     1.684000000     4.356000000
H    -5.727000000     2.634000000     4.881000000
C    -5.749000000     1.715000000     3.014000000
O    -5.764000000     2.903000000     2.334000000
C    -4.550000000     3.473000000     2.028000000
C    -4.562000000     4.433000000     0.984000000
H    -5.512000000     4.572000000     0.476000000
C    -3.344000000     5.132000000     0.613000000
O    -3.299000000     6.075000000    -0.474000000
C    -2.133000000     6.536000000    -1.014000000
C    -1.640000000     5.886000000    -2.201000000
H    -2.192000000     5.028000000    -2.575000000
C    -1.464000000     7.704000000    -0.563000000
H    -1.962000000     8.310000000     0.190000000
C    -0.378000000     8.208000000    -1.291000000
H     0.009000000     9.180000000    -0.996000000
C     0.127000000     7.546000000    -2.459000000
H     0.940000000     7.890000000    -3.093000000
C    -0.546000000     6.427000000    -2.938000000
O    -0.103000000     5.820000000    -4.128000000
C     0.742000000     4.759000000    -4.112000000
C     0.985000000     4.083000000    -5.313000000
H     0.571000000     4.467000000    -6.241000000
C     1.690000000     2.955000000    -5.332000000
O     1.829000000     2.303000000    -6.499000000
C     2.064000000     0.901000000    -6.575000000
C     3.296000000     0.458000000    -7.164000000
H     3.989000000     1.258000000    -7.411000000
C     3.539000000    -0.913000000    -7.226000000
H     4.518000000    -1.218000000    -7.586000000
C     2.628000000    -1.857000000    -6.778000000
H     2.741000000    -2.938000000    -6.797000000
C     1.398000000    -1.372000000    -6.310000000
C     1.149000000    -0.040000000    -6.097000000
H     0.193000000     0.255000000    -5.671000000
C    -2.175000000     1.027000000    -0.523000000
H    -2.590000000     2.031000000    -0.497000000
C    -0.890000000     0.699000000    -0.036000000
H    -0.268000000     1.419000000     0.489000000
C    -0.496000000    -0.614000000     0.134000000
H     0.406000000    -0.954000000     0.674000000
C    -1.302000000    -1.648000000    -0.318000000
H    -1.059000000    -2.679000000    -0.076000000
C    -2.442000000    -1.282000000    -0.983000000
H    -3.072000000    -2.076000000    -1.377000000
C    -2.953000000    -0.025000000    -1.024000000
C    -4.358000000     0.243000000    -1.560000000
O    -5.018000000    -0.712000000    -1.802000000
O    -4.856000000     1.346000000    -1.468000000
O    -4.179000000    -2.146000000    -3.873000000
H    -4.464000000    -1.746000000    -3.051000000
H    -3.764000000    -1.431000000    -4.356000000
O    -4.320000000     3.189000000    -3.305000000
H    -4.558000000     2.523000000    -2.660000000
H    -3.369000000     3.120000000    -3.382000000
O     1.031000000     0.358000000    -2.151000000
H     1.516000000    -0.461000000    -2.055000000
H     0.238000000     0.230000000    -1.631000000
O    -2.684000000     0.060000000    -4.755000000
H    -2.530000000     0.490000000    -5.597000000
H    -2.303000000     0.655000000    -4.110000000
O    -4.701000000    -0.033000000    -6.885000000
H    -4.660000000     0.165000000    -5.949000000
H    -5.571000000     0.262000000    -7.155000000
O    -6.369000000     0.920000000    -4.036000000
H    -7.177000000     1.320000000    -3.715000000
H    -5.879000000     0.700000000    -3.244000000
O    -1.644000000     2.399000000    -3.191000000
H    -1.477000000     2.381000000    -4.134000000
H    -0.798000000     2.194000000    -2.794000000
O    -8.682000000     2.091000000     1.659000000
H    -8.401000000     1.553000000     0.919000000
H    -8.635000000     2.990000000     1.333000000
O    -8.120000000    -3.531000000    -3.324000000
H    -7.356000000    -3.197000000    -2.854000000
H    -8.843000000    -2.976000000    -3.029000000
O    -8.432000000     2.720000000    -3.072000000
H    -8.190000000     2.728000000    -2.146000000
H    -7.899000000     3.410000000    -3.465000000
O    -7.072000000     2.553000000    -0.853000000
H    -6.222000000     2.157000000    -1.043000000
H    -7.668000000     1.809000000    -0.762000000
O    -5.963000000     5.656000000    -2.983000000
H    -6.381000000     5.888000000    -3.812000000
H    -5.623000000     4.773000000    -3.125000000
O    -5.300000000    -4.083000000    -2.330000000
H    -5.428000000    -4.993000000    -2.599000000
H    -4.699000000    -3.723000000    -2.982000000
O    -5.896000000     3.289000000    -5.982000000
H    -5.809000000     2.593000000    -5.331000000
H    -6.795000000     3.209000000    -6.300000000
O    -9.216000000    -0.577000000    -3.398000000
H    -9.630000000     0.280000000    -3.295000000
H    -9.860000000    -1.098000000    -3.878000000
O    -6.795000000    -2.330000000    -0.831000000
H    -6.432000000    -3.088000000    -1.288000000
H    -6.097000000    -1.675000000    -0.861000000
O    -7.631000000    -0.826000000    -6.056000000
H    -7.547000000    -0.036000000    -6.591000000
H    -7.431000000    -0.534000000    -5.167000000
O    -8.370000000     0.158000000    -0.617000000
H    -8.589000000     0.052000000    -1.543000000
H    -7.610000000    -0.409000000    -0.485000000
O    -4.292000000    -3.854000000    -6.181000000
H    -3.897000000    -3.471000000    -5.398000000
H    -3.716000000    -4.585000000    -6.407000000
