215
-1430.79916
C    -3.333000000    -2.210000000     3.812000000
H    -3.063000000    -1.348000000     4.416000000
C    -2.339000000    -3.058000000     3.334000000
C    -2.736000000    -4.190000000     2.635000000
H    -1.963000000    -4.781000000     2.150000000
C    -0.959000000    -2.571000000     3.543000000
O    -0.760000000    -1.969000000     4.926000000
H    -0.678000000    -1.825000000     2.785000000
O    -0.038000000    -3.716000000     3.432000000
C     1.204000000    -3.570000000     2.792000000
C     1.206000000    -3.882000000     1.479000000
H     0.302000000    -4.318000000     1.062000000
C     2.341000000    -3.813000000     0.756000000
O     2.259000000    -4.011000000    -0.616000000
C     3.441000000    -3.112000000     1.288000000
C     4.654000000    -2.879000000     0.352000000
H     5.525000000    -2.769000000     1.002000000
C     4.588000000    -1.584000000    -0.474000000
C     5.135000000    -0.436000000     0.108000000
H     5.548000000    -0.538000000     1.109000000
H     4.870000000    -3.736000000    -0.290000000
C     3.457000000    -2.776000000     2.635000000
H     4.323000000    -2.208000000     2.965000000
C     2.263000000    -2.988000000     3.426000000
C     2.143000000    -2.411000000     4.833000000
H     3.040000000    -2.322000000     5.449000000
H     1.544000000    -3.123000000     5.405000000
C     1.458000000    -1.073000000     4.687000000
C     2.235000000     0.017000000     4.455000000
H     3.292000000    -0.146000000     4.258000000
C     0.117000000    -0.887000000     4.845000000
C    -0.458000000     0.352000000     4.669000000
H    -1.535000000     0.393000000     4.805000000
C     0.311000000     1.465000000     4.525000000
O    -0.349000000     2.651000000     4.180000000
C    -0.301000000     3.113000000     2.815000000
C    -1.673000000     3.644000000     2.399000000
C    -1.839000000     4.860000000     1.716000000
H    -1.022000000     5.543000000     1.497000000
C    -2.845000000     2.737000000     2.422000000
H    -2.891000000     1.762000000     2.899000000
O     0.687000000     4.062000000     2.566000000
H    -0.109000000     2.211000000     2.215000000
C     1.683000000     1.301000000     4.394000000
C     2.519000000     2.604000000     4.173000000
H     3.420000000     2.382000000     4.750000000
H     2.011000000     3.453000000     4.636000000
C     2.720000000     2.846000000     2.746000000
C     3.891000000     2.384000000     2.170000000
H     4.646000000     1.775000000     2.659000000
C     1.810000000     3.648000000     2.041000000
C     2.046000000     3.926000000     0.675000000
H     1.298000000     4.457000000     0.092000000
C     3.240000000     3.430000000     0.143000000
O     3.283000000     3.639000000    -1.197000000
C     3.224000000     2.601000000    -2.177000000
C     2.382000000     2.905000000    -3.338000000
C     1.185000000     3.571000000    -3.112000000
H     1.057000000     4.042000000    -2.140000000
C     2.553000000     2.221000000    -4.525000000
H     3.470000000     1.685000000    -4.761000000
O     4.581000000     2.042000000    -2.498000000
H     2.688000000     1.746000000    -1.740000000
C     4.207000000     2.713000000     0.818000000
C     5.430000000     2.111000000     0.105000000
H     6.218000000     1.878000000     0.824000000
H     5.819000000     2.820000000    -0.630000000
C     5.097000000     0.775000000    -0.565000000
C     4.751000000     0.791000000    -1.893000000
C     4.122000000    -0.313000000    -2.479000000
H     3.808000000    -0.309000000    -3.519000000
C     4.068000000    -1.498000000    -1.731000000
O     3.352000000    -2.520000000    -2.260000000
C     2.139000000    -2.891000000    -1.563000000
H     1.960000000    -2.018000000    -0.919000000
C     0.958000000    -3.012000000    -2.511000000
C    -0.301000000    -3.361000000    -2.083000000
H    -0.371000000    -3.582000000    -1.021000000
C     1.102000000    -2.854000000    -3.883000000
H     2.040000000    -2.610000000    -4.376000000
C     0.021000000    -3.079000000    -4.706000000
O     0.124000000    -2.869000000    -6.041000000
C    -1.270000000    -3.454000000    -4.246000000
H    -2.099000000    -3.609000000    -4.931000000
C    -1.398000000    -3.571000000    -2.862000000
O    -2.659000000    -3.943000000    -2.412000000
C    -2.853000000    -4.998000000    -1.590000000
C    -3.608000000    -4.825000000    -0.486000000
H    -3.906000000    -3.789000000    -0.342000000
C    -2.409000000    -6.294000000    -1.884000000
H    -1.858000000    -6.506000000    -2.796000000
C    -2.634000000    -7.343000000    -0.926000000
H    -2.415000000    -8.379000000    -1.171000000
C    -3.331000000    -7.081000000     0.311000000
H    -3.635000000    -7.909000000     0.947000000
C    -3.818000000    -5.808000000     0.490000000
O    -4.430000000    -5.453000000     1.625000000
C    -4.068000000    -4.444000000     2.466000000
C    -5.003000000    -3.642000000     3.009000000
H    -6.066000000    -3.849000000     2.915000000
C    -4.706000000    -2.489000000     3.663000000
O    -5.655000000    -1.793000000     4.371000000
C    -5.943000000    -0.478000000     4.017000000
C    -5.323000000     0.236000000     3.012000000
H    -4.624000000    -0.278000000     2.358000000
C    -6.960000000     0.158000000     4.701000000
H    -7.442000000    -0.397000000     5.503000000
C    -7.270000000     1.499000000     4.503000000
H    -8.133000000     1.893000000     5.035000000
C    -6.589000000     2.219000000     3.521000000
H    -6.878000000     3.254000000     3.356000000
C    -5.615000000     1.597000000     2.825000000
O    -5.101000000     2.274000000     1.827000000
C    -4.093000000     3.167000000     1.873000000
C    -4.102000000     4.304000000     1.091000000
H    -5.021000000     4.461000000     0.532000000
C    -3.012000000     5.125000000     0.985000000
O    -3.059000000     6.176000000     0.195000000
C    -2.196000000     6.310000000    -0.870000000
C    -2.126000000     5.318000000    -1.826000000
H    -2.704000000     4.398000000    -1.792000000
C    -1.406000000     7.421000000    -1.017000000
H    -1.372000000     8.124000000    -0.188000000
C    -0.495000000     7.547000000    -2.073000000
H    -0.037000000     8.498000000    -2.330000000
C    -0.353000000     6.485000000    -2.976000000
H     0.381000000     6.535000000    -3.776000000
C    -1.161000000     5.369000000    -2.849000000
O    -1.021000000     4.314000000    -3.787000000
C     0.170000000     3.648000000    -4.071000000
C     0.390000000     3.028000000    -5.321000000
H    -0.345000000     3.208000000    -6.101000000
C     1.547000000     2.279000000    -5.532000000
O     1.563000000     1.585000000    -6.745000000
C     1.868000000     0.275000000    -6.939000000
C     2.844000000    -0.118000000    -7.825000000
H     3.474000000     0.581000000    -8.370000000
C     2.858000000    -1.515000000    -8.113000000
H     3.698000000    -1.898000000    -8.687000000
C     1.943000000    -2.399000000    -7.564000000
H     2.073000000    -3.429000000    -7.888000000
C     1.026000000    -2.012000000    -6.647000000
C     0.968000000    -0.653000000    -6.289000000
H     0.165000000    -0.264000000    -5.668000000
C    -2.089000000     1.385000000    -0.487000000
H    -2.753000000     2.152000000    -0.876000000
C    -0.811000000     1.717000000    -0.204000000
H    -0.512000000     2.756000000    -0.316000000
C     0.116000000     0.738000000     0.205000000
H     1.149000000     0.934000000     0.544000000
C    -0.354000000    -0.590000000     0.317000000
H     0.345000000    -1.357000000     0.642000000
C    -1.725000000    -0.930000000     0.112000000
H    -1.999000000    -1.978000000     0.204000000
C    -2.613000000     0.085000000    -0.387000000
C    -4.058000000    -0.202000000    -0.646000000
O    -4.386000000    -1.384000000    -0.687000000
O    -4.833000000     0.665000000    -0.974000000
O    -5.685000000    -4.783000000    -3.477000000
H    -5.331000000    -3.894000000    -3.479000000
H    -5.695000000    -5.035000000    -2.554000000
O    -4.305000000     2.445000000    -2.904000000
H    -4.681000000     1.941000000    -2.182000000
H    -3.554000000     1.927000000    -3.192000000
O    -0.515000000     0.197000000    -2.901000000
H    -0.775000000    -0.569000000    -2.391000000
H    -0.073000000     0.766000000    -2.271000000
O    -4.504000000     3.047000000    -6.415000000
H    -4.180000000     2.198000000    -6.112000000
H    -4.712000000     2.908000000    -7.339000000
O    -6.838000000     5.869000000    -0.576000000
H    -6.315000000     5.586000000    -1.326000000
H    -7.499000000     6.451000000    -0.951000000
O    -4.583000000    -1.905000000    -3.264000000
H    -4.018000000    -1.226000000    -3.631000000
H    -4.533000000    -1.774000000    -2.317000000
O    -6.747000000    -2.282000000    -5.304000000
H    -5.965000000    -2.434000000    -4.774000000
H    -6.419000000    -1.865000000    -6.101000000
O    -7.207000000    -0.901000000    -1.424000000
H    -6.277000000    -0.723000000    -1.564000000
H    -7.633000000    -0.052000000    -1.544000000
O    -8.541000000    -4.055000000     1.717000000
H    -8.341000000    -4.560000000     2.505000000
H    -7.705000000    -3.665000000     1.463000000
O    -2.967000000    -0.069000000    -4.239000000
H    -2.791000000    -0.287000000    -5.154000000
H    -2.120000000     0.216000000    -3.894000000
O    -8.076000000     2.153000000    -3.084000000
H    -7.517000000     2.423000000    -2.355000000
H    -7.603000000     2.436000000    -3.866000000
O    -7.309000000     1.666000000    -0.484000000
H    -6.408000000     1.349000000    -0.540000000
H    -7.267000000     2.400000000     0.130000000
O   -10.418000000     1.802000000    -1.583000000
H   -10.383000000     2.635000000    -1.112000000
H    -9.694000000     1.849000000    -2.208000000
O    -5.329000000     4.808000000    -2.847000000
H    -4.688000000     5.213000000    -3.433000000
H    -5.068000000     3.888000000    -2.806000000
O    -6.437000000    -2.909000000     0.230000000
H    -6.974000000    -2.262000000    -0.226000000
H    -5.536000000    -2.649000000     0.042000000
O    -8.459000000    -2.715000000    -3.322000000
H    -7.793000000    -2.569000000    -3.993000000
H    -8.107000000    -2.294000000    -2.538000000
O    -7.724000000     3.839000000     1.132000000
H    -8.631000000     4.124000000     1.247000000
H    -7.281000000     4.600000000     0.758000000
O    -9.655000000     0.054000000     0.295000000
H   -10.028000000     0.475000000    -0.480000000
H    -8.710000000     0.070000000     0.144000000
O   -10.264000000     0.296000000     2.995000000
H    -9.672000000     0.052000000     2.283000000
H   -10.150000000     1.242000000     3.086000000
