215
-1454.27304
C    -4.112000000    -1.746000000     2.945000000
H    -3.921000000    -0.901000000     3.600000000
C    -3.027000000    -2.527000000     2.625000000
C    -3.283000000    -3.585000000     1.726000000
H    -2.461000000    -4.283000000     1.587000000
C    -1.647000000    -2.308000000     3.232000000
O    -1.723000000    -1.644000000     4.506000000
H    -1.028000000    -1.753000000     2.512000000
O    -0.953000000    -3.566000000     3.464000000
C     0.362000000    -3.636000000     3.031000000
C     0.635000000    -4.172000000     1.781000000
H    -0.157000000    -4.494000000     1.109000000
C     1.862000000    -4.066000000     1.248000000
O     1.951000000    -4.436000000    -0.057000000
C     2.890000000    -3.449000000     1.872000000
C     4.212000000    -3.220000000     1.180000000
H     4.933000000    -3.151000000     1.998000000
C     4.304000000    -2.005000000     0.350000000
C     4.895000000    -0.869000000     0.864000000
H     5.233000000    -0.831000000     1.897000000
H     4.470000000    -4.148000000     0.666000000
C     2.663000000    -2.872000000     3.117000000
H     3.399000000    -2.343000000     3.717000000
C     1.362000000    -2.956000000     3.657000000
C     1.102000000    -2.307000000     5.063000000
H     2.028000000    -2.337000000     5.640000000
H     0.419000000    -2.990000000     5.572000000
C     0.541000000    -0.972000000     4.766000000
C     1.428000000     0.183000000     4.705000000
H     2.498000000     0.076000000     4.864000000
C    -0.783000000    -0.668000000     4.560000000
C    -1.286000000     0.568000000     4.351000000
H    -2.341000000     0.783000000     4.204000000
C    -0.403000000     1.602000000     4.337000000
O    -0.939000000     2.809000000     3.846000000
C    -0.643000000     3.171000000     2.450000000
C    -1.865000000     3.737000000     1.707000000
C    -1.676000000     4.794000000     0.818000000
H    -0.638000000     4.985000000     0.558000000
C    -3.153000000     3.284000000     1.990000000
H    -3.192000000     2.500000000     2.742000000
O     0.443000000     4.064000000     2.360000000
H    -0.346000000     2.221000000     1.982000000
C     0.949000000     1.465000000     4.506000000
C     1.961000000     2.600000000     4.446000000
H     2.835000000     2.378000000     5.062000000
H     1.546000000     3.478000000     4.945000000
C     2.487000000     2.893000000     3.050000000
C     3.672000000     2.250000000     2.606000000
H     4.169000000     1.517000000     3.236000000
C     1.680000000     3.557000000     2.097000000
C     2.142000000     3.771000000     0.757000000
H     1.605000000     4.346000000     0.008000000
C     3.387000000     3.245000000     0.445000000
O     3.627000000     3.380000000    -0.888000000
C     3.344000000     2.224000000    -1.759000000
C     2.877000000     2.774000000    -3.009000000
C     1.882000000     3.791000000    -3.001000000
H     1.448000000     4.217000000    -2.100000000
C     3.164000000     2.050000000    -4.170000000
H     3.861000000     1.218000000    -4.235000000
O     4.586000000     1.421000000    -1.959000000
H     2.529000000     1.600000000    -1.365000000
C     4.126000000     2.426000000     1.295000000
C     5.293000000     1.585000000     0.809000000
H     5.896000000     1.374000000     1.695000000
H     5.911000000     2.187000000     0.140000000
C     4.930000000     0.313000000     0.133000000
C     4.598000000     0.260000000    -1.214000000
C     3.928000000    -0.848000000    -1.727000000
H     3.498000000    -0.923000000    -2.722000000
C     3.797000000    -1.984000000    -0.973000000
O     3.107000000    -3.015000000    -1.454000000
C     1.839000000    -3.353000000    -1.060000000
H     1.397000000    -2.477000000    -0.564000000
C     0.970000000    -3.676000000    -2.321000000
C    -0.194000000    -4.401000000    -2.268000000
H    -0.566000000    -4.755000000    -1.310000000
C     1.343000000    -3.163000000    -3.579000000
H     2.262000000    -2.587000000    -3.653000000
C     0.556000000    -3.365000000    -4.730000000
O     0.898000000    -2.790000000    -5.956000000
C    -0.472000000    -4.229000000    -4.643000000
H    -1.092000000    -4.544000000    -5.479000000
C    -0.897000000    -4.765000000    -3.451000000
O    -1.874000000    -5.772000000    -3.366000000
C    -2.475000000    -6.111000000    -2.215000000
C    -3.387000000    -5.212000000    -1.647000000
H    -3.772000000    -4.387000000    -2.241000000
C    -2.161000000    -7.309000000    -1.560000000
H    -1.436000000    -7.938000000    -2.070000000
C    -2.806000000    -7.703000000    -0.439000000
H    -2.561000000    -8.620000000     0.090000000
C    -3.716000000    -6.829000000     0.172000000
H    -4.074000000    -7.121000000     1.156000000
C    -3.967000000    -5.608000000    -0.426000000
O    -4.907000000    -4.731000000     0.144000000
C    -4.541000000    -3.773000000     1.080000000
C    -5.620000000    -2.950000000     1.469000000
H    -6.566000000    -3.209000000     1.000000000
C    -5.379000000    -1.884000000     2.402000000
O    -6.500000000    -1.090000000     2.721000000
C    -6.556000000     0.257000000     3.023000000
C    -6.039000000     1.165000000     2.135000000
H    -5.858000000     0.890000000     1.099000000
C    -6.765000000     0.571000000     4.371000000
H    -6.743000000    -0.196000000     5.142000000
C    -6.595000000     1.891000000     4.763000000
H    -6.725000000     2.215000000     5.792000000
C    -6.207000000     2.826000000     3.847000000
H    -6.030000000     3.849000000     4.170000000
C    -5.921000000     2.516000000     2.526000000
O    -5.551000000     3.429000000     1.548000000
C    -4.237000000     3.844000000     1.364000000
C    -4.075000000     4.998000000     0.577000000
H    -4.976000000     5.454000000     0.177000000
C    -2.828000000     5.435000000     0.289000000
O    -2.692000000     6.539000000    -0.505000000
C    -1.648000000     6.591000000    -1.384000000
C    -1.376000000     5.614000000    -2.389000000
H    -1.949000000     4.698000000    -2.265000000
C    -0.841000000     7.712000000    -1.364000000
H    -0.890000000     8.505000000    -0.623000000
C     0.141000000     7.883000000    -2.396000000
H     0.788000000     8.756000000    -2.414000000
C     0.387000000     6.866000000    -3.282000000
H     1.193000000     6.932000000    -4.009000000
C    -0.318000000     5.698000000    -3.243000000
O    -0.099000000     4.666000000    -4.142000000
C     1.100000000     3.949000000    -4.179000000
C     1.476000000     3.278000000    -5.343000000
H     0.909000000     3.340000000    -6.268000000
C     2.532000000     2.353000000    -5.361000000
O     2.721000000     1.586000000    -6.507000000
C     2.913000000     0.232000000    -6.446000000
C     4.101000000    -0.273000000    -6.958000000
H     4.875000000     0.462000000    -7.164000000
C     4.264000000    -1.659000000    -6.982000000
H     5.269000000    -2.020000000    -7.185000000
C     3.178000000    -2.470000000    -6.614000000
H     3.266000000    -3.553000000    -6.571000000
C     1.953000000    -1.939000000    -6.265000000
C     1.798000000    -0.559000000    -6.122000000
H     0.835000000    -0.102000000    -5.909000000
C    -1.321000000     1.608000000    -1.533000000
H    -1.420000000     2.567000000    -2.037000000
C    -0.241000000     1.302000000    -0.712000000
H     0.561000000     2.027000000    -0.599000000
C    -0.311000000     0.074000000     0.037000000
H     0.527000000    -0.264000000     0.662000000
C    -1.347000000    -0.779000000    -0.085000000
H    -1.292000000    -1.770000000     0.358000000
C    -2.392000000    -0.548000000    -0.936000000
H    -3.243000000    -1.221000000    -1.003000000
C    -2.385000000     0.643000000    -1.672000000
C    -3.463000000     0.972000000    -2.579000000
O    -4.520000000     0.331000000    -2.472000000
O    -3.439000000     1.857000000    -3.432000000
O    -8.360000000     4.742000000    -1.616000000
H    -7.514000000     4.371000000    -1.865000000
H    -8.994000000     4.289000000    -2.173000000
O    -4.449000000     4.193000000    -3.002000000
H    -4.979000000     3.870000000    -2.273000000
H    -3.989000000     3.418000000    -3.325000000
O    -4.390000000    -0.271000000    -8.039000000
H    -4.000000000    -1.091000000    -7.736000000
H    -5.133000000    -0.128000000    -7.453000000
O    -6.523000000     4.413000000    -4.657000000
H    -5.686000000     4.504000000    -4.201000000
H    -6.562000000     3.488000000    -4.902000000
O    -5.640000000     1.607000000    -4.714000000
H    -4.888000000     1.814000000    -4.160000000
H    -5.712000000     0.654000000    -4.675000000
O    -6.665000000    -3.124000000    -6.073000000
H    -6.085000000    -2.666000000    -5.464000000
H    -6.797000000    -2.503000000    -6.790000000
O    -1.721000000     1.129000000    -5.421000000
H    -2.046000000     1.674000000    -6.138000000
H    -2.108000000     1.512000000    -4.634000000
O    -1.594000000    -1.230000000    -3.922000000
H    -1.537000000    -0.507000000    -4.547000000
H    -0.798000000    -1.155000000    -3.395000000
O    -4.718000000     6.886000000    -3.058000000
H    -4.704000000     5.939000000    -2.918000000
H    -3.837000000     7.095000000    -3.368000000
O    -3.440000000     6.318000000    -5.955000000
H    -3.383000000     5.525000000    -5.421000000
H    -2.927000000     6.968000000    -5.473000000
O    -5.547000000     2.304000000    -7.386000000
H    -6.360000000     2.107000000    -7.850000000
H    -5.649000000     1.882000000    -6.533000000
O    -6.208000000     2.439000000    -1.774000000
H    -6.846000000     2.218000000    -1.096000000
H    -5.925000000     1.593000000    -2.121000000
O    -2.623000000     2.855000000    -7.660000000
H    -3.539000000     2.576000000    -7.637000000
H    -2.375000000     2.786000000    -8.582000000
O    -3.406000000    -2.906000000    -5.000000000
H    -2.564000000    -2.554000000    -4.711000000
H    -4.053000000    -2.291000000    -4.655000000
O    -8.335000000    -0.038000000    -3.668000000
H    -8.646000000     0.608000000    -4.303000000
H    -9.130000000    -0.476000000    -3.365000000
O    -5.897000000    -1.736000000    -1.346000000
H    -6.641000000    -1.340000000    -0.892000000
H    -5.399000000    -0.991000000    -1.684000000
O    -5.763000000    -1.221000000    -4.199000000
H    -6.584000000    -0.731000000    -4.154000000
H    -5.162000000    -0.735000000    -3.634000000
O    -6.557000000    -4.101000000    -2.473000000
H    -7.264000000    -3.711000000    -2.988000000
H    -6.126000000    -3.355000000    -2.055000000
O    -8.043000000    -0.146000000    -0.700000000
H    -8.395000000    -1.021000000    -0.538000000
H    -8.103000000    -0.036000000    -1.649000000
