215
-1446.32430
C    -4.264000000    -0.867000000     3.109000000
H    -3.844000000    -0.071000000     3.719000000
C    -3.428000000    -1.904000000     2.731000000
C    -3.906000000    -2.862000000     1.828000000
H    -3.234000000    -3.679000000     1.576000000
C    -1.961000000    -1.966000000     3.169000000
O    -1.642000000    -1.409000000     4.447000000
H    -1.531000000    -1.328000000     2.382000000
O    -1.408000000    -3.270000000     3.018000000
C    -0.109000000    -3.472000000     2.521000000
C    -0.029000000    -4.069000000     1.313000000
H    -0.963000000    -4.262000000     0.791000000
C     1.226000000    -4.285000000     0.729000000
O     1.375000000    -4.757000000    -0.537000000
C     2.362000000    -3.895000000     1.406000000
C     3.686000000    -4.170000000     0.804000000
H     4.351000000    -4.335000000     1.654000000
C     4.108000000    -3.029000000     0.001000000
C     4.705000000    -1.866000000     0.577000000
H     5.091000000    -1.873000000     1.593000000
H     3.763000000    -5.034000000     0.140000000
C     2.346000000    -3.299000000     2.641000000
H     3.257000000    -3.078000000     3.191000000
C     1.082000000    -3.076000000     3.247000000
C     1.006000000    -2.546000000     4.663000000
H     1.959000000    -2.705000000     5.171000000
H     0.275000000    -3.136000000     5.221000000
C     0.679000000    -1.108000000     4.832000000
C     1.750000000    -0.169000000     4.910000000
H     2.737000000    -0.512000000     5.210000000
C    -0.582000000    -0.607000000     4.627000000
C    -0.765000000     0.775000000     4.614000000
H    -1.774000000     1.119000000     4.403000000
C     0.289000000     1.704000000     4.635000000
O    -0.031000000     3.035000000     4.465000000
C     0.224000000     3.543000000     3.173000000
C    -0.903000000     4.446000000     2.684000000
C    -0.663000000     5.483000000     1.738000000
H     0.331000000     5.700000000     1.358000000
C    -2.227000000     4.037000000     2.837000000
H    -2.571000000     3.186000000     3.419000000
O     1.512000000     4.061000000     3.024000000
H     0.265000000     2.674000000     2.500000000
C     1.546000000     1.217000000     4.849000000
C     2.839000000     2.038000000     4.724000000
H     3.710000000     1.716000000     5.297000000
H     2.678000000     3.009000000     5.197000000
C     3.121000000     2.217000000     3.138000000
C     4.061000000     1.378000000     2.525000000
H     4.407000000     0.528000000     3.107000000
C     2.529000000     3.317000000     2.491000000
C     2.781000000     3.368000000     1.092000000
H     2.188000000     4.064000000     0.504000000
C     3.750000000     2.566000000     0.457000000
O     3.917000000     2.565000000    -0.917000000
C     3.350000000     1.589000000    -1.703000000
C     2.651000000     2.087000000    -2.924000000
C     1.544000000     2.879000000    -2.697000000
H     1.454000000     3.322000000    -1.708000000
C     2.864000000     1.503000000    -4.180000000
H     3.665000000     0.826000000    -4.466000000
O     4.237000000     0.608000000    -2.119000000
H     2.579000000     1.068000000    -1.116000000
C     4.403000000     1.553000000     1.205000000
C     5.414000000     0.614000000     0.567000000
H     6.097000000     0.203000000     1.313000000
H     6.116000000     1.104000000    -0.112000000
C     4.768000000    -0.635000000    -0.122000000
C     4.330000000    -0.580000000    -1.414000000
C     3.855000000    -1.689000000    -2.054000000
H     3.371000000    -1.679000000    -3.028000000
C     3.693000000    -2.844000000    -1.316000000
O     2.923000000    -3.813000000    -1.911000000
C     1.530000000    -3.726000000    -1.586000000
H     1.326000000    -2.757000000    -1.107000000
C     0.635000000    -3.879000000    -2.822000000
C    -0.598000000    -4.449000000    -2.610000000
H    -0.836000000    -4.796000000    -1.607000000
C     1.036000000    -3.543000000    -4.166000000
H     2.034000000    -3.169000000    -4.380000000
C     0.207000000    -3.705000000    -5.207000000
O     0.548000000    -3.288000000    -6.527000000
C    -1.086000000    -4.281000000    -5.066000000
H    -1.745000000    -4.502000000    -5.902000000
C    -1.433000000    -4.583000000    -3.713000000
O    -2.729000000    -5.025000000    -3.539000000
C    -3.328000000    -5.210000000    -2.287000000
C    -4.092000000    -4.178000000    -1.707000000
H    -4.041000000    -3.202000000    -2.183000000
C    -3.211000000    -6.464000000    -1.612000000
H    -2.589000000    -7.308000000    -1.898000000
C    -3.812000000    -6.632000000    -0.415000000
H    -3.815000000    -7.632000000     0.011000000
C    -4.648000000    -5.702000000     0.071000000
H    -5.327000000    -5.811000000     0.913000000
C    -4.748000000    -4.436000000    -0.545000000
O    -5.527000000    -3.501000000     0.116000000
C    -5.073000000    -2.631000000     1.171000000
C    -5.937000000    -1.568000000     1.498000000
H    -6.905000000    -1.409000000     1.028000000
C    -5.573000000    -0.748000000     2.600000000
O    -6.480000000     0.203000000     2.964000000
C    -6.132000000     1.380000000     3.572000000
C    -5.566000000     2.304000000     2.781000000
H    -5.467000000     2.215000000     1.702000000
C    -6.205000000     1.569000000     4.946000000
H    -6.721000000     0.839000000     5.563000000
C    -5.661000000     2.745000000     5.546000000
H    -5.630000000     2.890000000     6.623000000
C    -5.082000000     3.660000000     4.675000000
H    -4.668000000     4.564000000     5.113000000
C    -5.106000000     3.493000000     3.329000000
O    -4.591000000     4.473000000     2.565000000
C    -3.263000000     4.708000000     2.210000000
C    -3.041000000     5.759000000     1.299000000
H    -3.831000000     6.349000000     0.843000000
C    -1.705000000     6.081000000     1.042000000
O    -1.389000000     6.999000000     0.022000000
C    -0.604000000     6.646000000    -1.084000000
C    -0.851000000     5.501000000    -1.723000000
H    -1.658000000     4.849000000    -1.399000000
C     0.344000000     7.581000000    -1.596000000
H     0.511000000     8.515000000    -1.064000000
C     1.021000000     7.274000000    -2.775000000
H     1.685000000     8.055000000    -3.137000000
C     0.797000000     6.125000000    -3.456000000
H     1.298000000     5.937000000    -4.402000000
C    -0.170000000     5.201000000    -2.940000000
O    -0.399000000     4.032000000    -3.538000000
C     0.647000000     3.149000000    -3.723000000
C     0.819000000     2.564000000    -5.025000000
H     0.077000000     2.743000000    -5.799000000
C     1.933000000     1.753000000    -5.254000000
O     1.972000000     1.200000000    -6.529000000
C     2.223000000    -0.082000000    -6.901000000
C     3.264000000    -0.408000000    -7.732000000
H     4.085000000     0.295000000    -7.847000000
C     3.364000000    -1.748000000    -8.137000000
H     4.237000000    -2.052000000    -8.708000000
C     2.470000000    -2.665000000    -7.696000000
H     2.626000000    -3.687000000    -8.032000000
C     1.410000000    -2.362000000    -6.850000000
C     1.327000000    -1.051000000    -6.391000000
H     0.484000000    -0.680000000    -5.814000000
C    -2.243000000     1.959000000    -0.465000000
H    -2.429000000     3.028000000    -0.527000000
C    -0.913000000     1.561000000    -0.160000000
H    -0.145000000     2.310000000     0.017000000
C    -0.624000000     0.203000000    -0.198000000
H     0.371000000    -0.166000000     0.125000000
C    -1.643000000    -0.743000000    -0.249000000
H    -1.336000000    -1.781000000    -0.150000000
C    -2.947000000    -0.363000000    -0.530000000
H    -3.761000000    -1.083000000    -0.519000000
C    -3.289000000     1.013000000    -0.671000000
C    -4.734000000     1.425000000    -0.934000000
O    -5.590000000     0.577000000    -1.061000000
O    -4.992000000     2.617000000    -0.983000000
O    -9.965000000     2.877000000    -2.469000000
H   -10.605000000     3.230000000    -1.850000000
H   -10.219000000     3.248000000    -3.314000000
O    -4.630000000     5.000000000    -1.988000000
H    -4.771000000     4.097000000    -1.702000000
H    -4.879000000     5.000000000    -2.912000000
O    -2.547000000     1.339000000    -3.899000000
H    -2.481000000     1.373000000    -2.945000000
H    -1.691000000     1.637000000    -4.209000000
O    -6.305000000     6.882000000     0.219000000
H    -6.646000000     7.620000000    -0.286000000
H    -5.862000000     6.334000000    -0.429000000
O    -5.954000000     3.523000000    -6.948000000
H    -5.570000000     3.242000000    -6.117000000
H    -6.133000000     2.708000000    -7.417000000
O    -7.024000000     2.137000000    -3.122000000
H    -6.506000000     1.920000000    -2.347000000
H    -7.891000000     2.351000000    -2.778000000
O    -4.704000000     2.737000000    -4.648000000
H    -3.878000000     2.359000000    -4.347000000
H    -5.349000000     2.447000000    -4.002000000
O    -2.887000000    -1.463000000    -5.104000000
H    -2.776000000    -2.160000000    -4.457000000
H    -2.911000000    -0.658000000    -4.587000000
O    -9.899000000     0.186000000     1.816000000
H    -9.364000000     0.704000000     1.215000000
H   -10.192000000     0.813000000     2.477000000
O    -5.006000000     5.505000000    -4.574000000
H    -4.386000000     5.784000000    -5.248000000
H    -5.119000000     4.567000000    -4.727000000
O    -7.899000000     5.372000000    -2.659000000
H    -7.689000000     5.925000000    -3.412000000
H    -8.114000000     4.521000000    -3.041000000
O    -7.505000000     3.884000000    -0.494000000
H    -6.652000000     3.519000000    -0.727000000
H    -7.705000000     4.497000000    -1.201000000
O    -9.892000000     0.065000000    -2.003000000
H   -10.133000000     0.914000000    -2.373000000
H    -9.192000000     0.266000000    -1.381000000
O    -4.233000000     7.830000000    -2.185000000
H    -4.195000000     6.917000000    -2.470000000
H    -3.446000000     7.948000000    -1.653000000
O    -6.747000000    -1.755000000    -2.368000000
H    -7.622000000    -1.483000000    -2.643000000
H    -6.343000000    -0.956000000    -2.028000000
O    -5.493000000    -3.498000000    -4.597000000
H    -5.944000000    -2.664000000    -4.728000000
H    -5.910000000    -3.877000000    -3.824000000
O    -7.725000000     4.942000000     1.949000000
H    -7.579000000     4.253000000     1.301000000
H    -7.204000000     5.681000000     1.634000000
O    -8.192000000     1.168000000    -0.121000000
H    -8.105000000     2.121000000    -0.161000000
H    -7.316000000     0.839000000    -0.321000000
O    -7.972000000     1.294000000    -5.754000000
H    -7.879000000     1.546000000    -4.835000000
H    -8.917000000     1.208000000    -5.884000000
