215
-1462.83890
C    -3.777000000    -2.021000000     3.214000000
H    -3.479000000    -1.243000000     3.913000000
C    -2.791000000    -2.911000000     2.653000000
C    -3.277000000    -4.004000000     1.846000000
H    -2.521000000    -4.636000000     1.386000000
C    -1.369000000    -2.698000000     3.053000000
O    -1.201000000    -2.210000000     4.397000000
H    -1.045000000    -1.941000000     2.323000000
O    -0.613000000    -3.917000000     2.947000000
C     0.614000000    -3.855000000     2.337000000
C     0.753000000    -4.253000000     1.057000000
H    -0.040000000    -4.766000000     0.518000000
C     2.005000000    -4.180000000     0.396000000
O     2.066000000    -4.463000000    -0.985000000
C     3.134000000    -3.699000000     1.126000000
C     4.465000000    -3.457000000     0.405000000
H     5.292000000    -3.566000000     1.110000000
C     4.537000000    -2.107000000    -0.304000000
C     4.908000000    -0.985000000     0.381000000
H     5.313000000    -1.062000000     1.387000000
H     4.587000000    -4.304000000    -0.273000000
C     2.946000000    -3.289000000     2.464000000
H     3.805000000    -2.864000000     2.979000000
C     1.692000000    -3.340000000     3.087000000
C     1.621000000    -2.852000000     4.548000000
H     2.627000000    -2.848000000     4.973000000
H     0.966000000    -3.626000000     4.951000000
C     1.055000000    -1.401000000     4.556000000
C     1.909000000    -0.356000000     4.584000000
H     2.991000000    -0.452000000     4.627000000
C    -0.312000000    -1.198000000     4.473000000
C    -0.788000000     0.097000000     4.234000000
H    -1.866000000     0.149000000     4.098000000
C     0.082000000     1.212000000     4.284000000
O    -0.460000000     2.489000000     4.179000000
C    -0.331000000     3.163000000     2.927000000
C    -1.649000000     3.853000000     2.508000000
C    -1.628000000     5.077000000     1.793000000
H    -0.635000000     5.471000000     1.591000000
C    -2.857000000     3.204000000     2.574000000
H    -2.932000000     2.236000000     3.063000000
O     0.825000000     3.996000000     3.019000000
H    -0.182000000     2.384000000     2.165000000
C     1.398000000     0.965000000     4.435000000
C     2.434000000     2.057000000     4.485000000
H     3.369000000     1.657000000     4.883000000
H     2.066000000     2.856000000     5.132000000
C     2.725000000     2.510000000     3.118000000
C     3.784000000     1.853000000     2.474000000
H     4.319000000     1.044000000     2.965000000
C     1.942000000     3.444000000     2.458000000
C     2.293000000     3.799000000     1.147000000
H     1.699000000     4.574000000     0.669000000
C     3.353000000     3.192000000     0.520000000
O     3.493000000     3.431000000    -0.795000000
C     3.078000000     2.369000000    -1.689000000
C     2.308000000     2.877000000    -2.870000000
C     1.223000000     3.700000000    -2.592000000
H     0.888000000     3.820000000    -1.565000000
C     2.491000000     2.361000000    -4.188000000
H     3.338000000     1.713000000    -4.397000000
O     4.222000000     1.592000000    -2.159000000
H     2.384000000     1.776000000    -1.075000000
C     4.123000000     2.197000000     1.165000000
C     5.307000000     1.433000000     0.515000000
H     6.019000000     1.161000000     1.297000000
H     5.903000000     2.058000000    -0.154000000
C     4.877000000     0.231000000    -0.254000000
C     4.311000000     0.394000000    -1.508000000
C     3.802000000    -0.698000000    -2.131000000
H     3.237000000    -0.645000000    -3.058000000
C     3.981000000    -1.959000000    -1.570000000
O     3.461000000    -3.058000000    -2.168000000
C     2.111000000    -3.379000000    -1.894000000
H     1.695000000    -2.471000000    -1.434000000
C     1.102000000    -3.618000000    -3.040000000
C    -0.181000000    -4.095000000    -2.716000000
H    -0.387000000    -4.425000000    -1.701000000
C     1.354000000    -3.100000000    -4.289000000
H     2.338000000    -2.655000000    -4.412000000
C     0.362000000    -3.116000000    -5.259000000
O     0.589000000    -2.441000000    -6.430000000
C    -0.889000000    -3.453000000    -4.963000000
H    -1.604000000    -3.351000000    -5.775000000
C    -1.175000000    -4.000000000    -3.676000000
O    -2.549000000    -4.199000000    -3.379000000
C    -2.970000000    -5.069000000    -2.373000000
C    -3.813000000    -4.628000000    -1.319000000
H    -4.104000000    -3.588000000    -1.195000000
C    -2.673000000    -6.408000000    -2.371000000
H    -2.116000000    -6.802000000    -3.217000000
C    -3.118000000    -7.370000000    -1.448000000
H    -2.881000000    -8.431000000    -1.485000000
C    -3.909000000    -6.920000000    -0.414000000
H    -4.352000000    -7.605000000     0.305000000
C    -4.260000000    -5.586000000    -0.385000000
O    -5.040000000    -5.153000000     0.682000000
C    -4.621000000    -4.050000000     1.464000000
C    -5.537000000    -3.202000000     1.962000000
H    -6.575000000    -3.161000000     1.640000000
C    -5.152000000    -2.162000000     2.824000000
O    -6.154000000    -1.309000000     3.223000000
C    -5.887000000    -0.065000000     3.823000000
C    -5.580000000     0.941000000     2.870000000
H    -5.503000000     0.524000000     1.869000000
C    -6.202000000     0.276000000     5.147000000
H    -6.383000000    -0.464000000     5.922000000
C    -6.120000000     1.659000000     5.507000000
H    -6.366000000     2.031000000     6.499000000
C    -5.713000000     2.625000000     4.556000000
H    -5.552000000     3.683000000     4.746000000
C    -5.516000000     2.268000000     3.247000000
O    -5.328000000     3.238000000     2.300000000
C    -4.026000000     3.806000000     2.118000000
C    -3.949000000     4.999000000     1.421000000
H    -4.857000000     5.363000000     0.946000000
C    -2.774000000     5.605000000     1.214000000
O    -2.739000000     6.738000000     0.404000000
C    -1.883000000     6.800000000    -0.663000000
C    -1.886000000     5.811000000    -1.646000000
H    -2.596000000     4.989000000    -1.613000000
C    -0.802000000     7.736000000    -0.625000000
H    -0.790000000     8.402000000     0.234000000
C     0.248000000     7.714000000    -1.587000000
H     1.122000000     8.343000000    -1.436000000
C     0.177000000     6.709000000    -2.546000000
H     0.834000000     6.732000000    -3.411000000
C    -0.889000000     5.820000000    -2.551000000
O    -0.787000000     4.722000000    -3.402000000
C     0.363000000     4.058000000    -3.659000000
C     0.639000000     3.623000000    -4.946000000
H    -0.016000000     4.069000000    -5.690000000
C     1.649000000     2.698000000    -5.218000000
O     1.903000000     2.245000000    -6.543000000
C     2.204000000     0.849000000    -6.736000000
C     3.463000000     0.470000000    -7.137000000
H     4.179000000     1.250000000    -7.379000000
C     3.780000000    -0.822000000    -7.365000000
H     4.794000000    -1.043000000    -7.689000000
C     2.844000000    -1.806000000    -7.159000000
H     3.062000000    -2.870000000    -7.137000000
C     1.579000000    -1.468000000    -6.666000000
C     1.237000000    -0.131000000    -6.474000000
H     0.253000000     0.153000000    -6.110000000
C    -1.812000000     1.264000000    -0.168000000
H    -2.266000000     2.245000000    -0.060000000
C    -0.428000000     1.152000000    -0.016000000
H     0.132000000     2.079000000     0.085000000
C     0.127000000    -0.111000000    -0.063000000
H     1.163000000    -0.216000000     0.027000000
C    -0.684000000    -1.216000000    -0.239000000
H    -0.300000000    -2.223000000    -0.377000000
C    -2.072000000    -1.149000000    -0.292000000
H    -2.645000000    -2.064000000    -0.415000000
C    -2.619000000     0.154000000    -0.323000000
C    -4.065000000     0.270000000    -0.495000000
O    -4.776000000    -0.667000000    -0.839000000
O    -4.565000000     1.368000000    -0.385000000
O    -4.892000000     3.177000000    -2.081000000
H    -4.869000000     2.666000000    -1.273000000
H    -4.214000000     2.786000000    -2.632000000
O    -1.630000000    -0.125000000    -3.282000000
H    -1.168000000    -0.122000000    -2.443000000
H    -1.964000000    -1.018000000    -3.368000000
O    -5.080000000     0.540000000    -4.694000000
H    -4.497000000     1.298000000    -4.728000000
H    -5.766000000     0.793000000    -4.077000000
O    -4.133000000    -1.845000000    -5.463000000
H    -4.621000000    -1.109000000    -5.092000000
H    -3.984000000    -1.597000000    -6.376000000
O    -6.631000000     0.573000000    -2.550000000
H    -5.876000000     0.224000000    -2.076000000
H    -6.515000000     1.523000000    -2.519000000
O    -7.872000000    -5.258000000    -0.197000000
H    -8.140000000    -5.168000000     0.718000000
H    -7.389000000    -4.454000000    -0.386000000
O    -3.101000000     2.292000000    -3.802000000
H    -2.421000000     2.936000000    -3.995000000
H    -2.620000000     1.504000000    -3.549000000
O    -5.702000000     4.599000000    -5.320000000
H    -4.797000000     4.728000000    -5.034000000
H    -5.654000000     3.881000000    -5.951000000
O    -9.277000000    -3.278000000    -2.108000000
H    -9.936000000    -3.542000000    -1.466000000
H    -8.501000000    -3.075000000    -1.586000000
O    -7.519000000    -4.664000000    -4.130000000
H    -7.090000000    -3.808000000    -4.117000000
H    -8.442000000    -4.472000000    -3.966000000
O    -7.256000000     3.811000000    -2.833000000
H    -6.373000000     3.860000000    -2.466000000
H    -7.124000000     3.854000000    -3.780000000
O    -7.360000000     2.099000000     0.188000000
H    -6.564000000     1.622000000    -0.048000000
H    -7.044000000     2.896000000     0.613000000
O    -9.965000000     2.607000000    -0.387000000
H    -9.958000000     3.545000000    -0.578000000
H    -9.117000000     2.440000000     0.024000000
O    -9.255000000     5.254000000    -1.542000000
H    -8.535000000     4.740000000    -1.907000000
H    -9.238000000     6.074000000    -2.034000000
O    -7.001000000    -2.098000000    -1.040000000
H    -6.853000000    -2.373000000    -1.944000000
H    -6.201000000    -1.631000000    -0.798000000
O    -6.439000000    -2.201000000    -3.896000000
H    -5.561000000    -2.326000000    -4.255000000
H    -6.563000000    -1.252000000    -3.892000000
O    -8.614000000    -0.637000000     0.800000000
H    -8.366000000     0.249000000     0.534000000
H    -8.001000000    -1.207000000     0.334000000
O    -9.376000000     1.134000000     3.675000000
H    -8.976000000     1.500000000     2.885000000
H    -9.097000000     1.720000000     4.378000000
O    -9.648000000     0.357000000    -3.891000000
H    -8.969000000     0.823000000    -3.403000000
H    -9.656000000     0.777000000    -4.751000000
