215
-1433.92783
C    -4.101000000    -1.388000000     3.758000000
H    -3.679000000    -0.653000000     4.439000000
C    -3.301000000    -2.451000000     3.251000000
C    -3.830000000    -3.324000000     2.284000000
H    -3.093000000    -3.982000000     1.831000000
C    -1.786000000    -2.293000000     3.416000000
O    -1.445000000    -1.659000000     4.631000000
H    -1.367000000    -1.644000000     2.634000000
O    -1.236000000    -3.683000000     3.419000000
C     0.008000000    -3.881000000     2.828000000
C     0.086000000    -4.414000000     1.505000000
H    -0.828000000    -4.653000000     0.967000000
C     1.287000000    -4.550000000     0.815000000
O     1.188000000    -4.861000000    -0.479000000
C     2.456000000    -4.158000000     1.481000000
C     3.749000000    -4.156000000     0.688000000
H     4.586000000    -4.397000000     1.347000000
C     4.000000000    -2.871000000    -0.147000000
C     4.708000000    -1.735000000     0.290000000
H     5.086000000    -1.726000000     1.309000000
H     3.663000000    -5.029000000     0.038000000
C     2.440000000    -3.638000000     2.803000000
H     3.384000000    -3.210000000     3.133000000
C     1.207000000    -3.520000000     3.475000000
C     1.158000000    -2.797000000     4.751000000
H     2.124000000    -3.010000000     5.212000000
H     0.354000000    -3.234000000     5.346000000
C     0.967000000    -1.328000000     4.601000000
C     2.015000000    -0.421000000     4.378000000
H     3.038000000    -0.773000000     4.478000000
C    -0.366000000    -0.856000000     4.604000000
C    -0.632000000     0.423000000     4.238000000
H    -1.661000000     0.715000000     4.047000000
C     0.448000000     1.362000000     4.069000000
O     0.189000000     2.693000000     3.718000000
C     0.396000000     3.115000000     2.372000000
C    -0.826000000     3.856000000     1.828000000
C    -0.625000000     5.073000000     1.236000000
H     0.337000000     5.555000000     1.395000000
C    -2.068000000     3.232000000     1.802000000
H    -2.079000000     2.223000000     2.207000000
O     1.624000000     3.868000000     2.360000000
H     0.540000000     2.234000000     1.730000000
C     1.743000000     0.929000000     4.181000000
C     2.911000000     1.889000000     4.178000000
H     3.761000000     1.437000000     4.694000000
H     2.771000000     2.820000000     4.732000000
C     3.325000000     2.165000000     2.713000000
C     4.309000000     1.352000000     2.239000000
H     4.804000000     0.638000000     2.892000000
C     2.766000000     3.203000000     1.982000000
C     3.237000000     3.575000000     0.738000000
H     2.883000000     4.480000000     0.250000000
C     4.145000000     2.615000000     0.179000000
O     4.278000000     2.757000000    -1.135000000
C     3.635000000     1.728000000    -2.059000000
C     2.798000000     2.366000000    -3.178000000
C     2.261000000     3.708000000    -3.026000000
H     2.364000000     4.241000000    -2.084000000
C     2.627000000     1.734000000    -4.458000000
H     3.139000000     0.792000000    -4.636000000
O     4.554000000     0.700000000    -2.499000000
H     2.843000000     1.246000000    -1.467000000
C     4.681000000     1.531000000     0.884000000
C     5.568000000     0.510000000     0.216000000
H     6.378000000     0.215000000     0.887000000
H     6.088000000     1.245000000    -0.402000000
C     4.888000000    -0.578000000    -0.490000000
C     4.456000000    -0.481000000    -1.769000000
C     3.833000000    -1.626000000    -2.240000000
H     3.520000000    -1.682000000    -3.279000000
C     3.471000000    -2.732000000    -1.442000000
O     2.699000000    -3.745000000    -1.883000000
C     1.321000000    -3.802000000    -1.362000000
H     1.195000000    -2.874000000    -0.784000000
C     0.194000000    -3.802000000    -2.452000000
C    -0.982000000    -4.582000000    -2.282000000
H    -1.005000000    -5.283000000    -1.452000000
C     0.265000000    -2.972000000    -3.549000000
H     1.150000000    -2.394000000    -3.800000000
C    -0.817000000    -2.831000000    -4.388000000
O    -0.778000000    -1.868000000    -5.336000000
C    -1.960000000    -3.628000000    -4.259000000
H    -2.732000000    -3.578000000    -5.023000000
C    -2.072000000    -4.455000000    -3.118000000
O    -3.092000000    -5.331000000    -2.851000000
C    -3.685000000    -5.636000000    -1.674000000
C    -4.394000000    -4.635000000    -0.916000000
H    -4.460000000    -3.654000000    -1.380000000
C    -3.610000000    -6.913000000    -1.174000000
H    -2.891000000    -7.616000000    -1.588000000
C    -4.213000000    -7.245000000     0.051000000
H    -4.023000000    -8.222000000     0.490000000
C    -4.927000000    -6.292000000     0.762000000
H    -5.420000000    -6.505000000     1.707000000
C    -4.959000000    -4.987000000     0.311000000
O    -5.661000000    -4.043000000     1.012000000
C    -5.132000000    -3.210000000     1.913000000
C    -5.976000000    -2.287000000     2.498000000
H    -7.030000000    -2.276000000     2.231000000
C    -5.431000000    -1.340000000     3.378000000
O    -6.266000000    -0.348000000     3.773000000
C    -5.908000000     1.010000000     3.595000000
C    -5.351000000     1.483000000     2.412000000
H    -5.161000000     0.748000000     1.635000000
C    -6.137000000     1.856000000     4.664000000
H    -6.688000000     1.559000000     5.552000000
C    -5.637000000     3.171000000     4.624000000
H    -5.760000000     3.786000000     5.512000000
C    -5.208000000     3.648000000     3.364000000
H    -5.002000000     4.712000000     3.280000000
C    -5.049000000     2.819000000     2.270000000
O    -4.383000000     3.276000000     1.115000000
C    -3.116000000     3.850000000     1.126000000
C    -2.932000000     5.072000000     0.474000000
H    -3.814000000     5.575000000     0.085000000
C    -1.688000000     5.675000000     0.560000000
O    -1.371000000     6.843000000    -0.070000000
C    -0.300000000     7.088000000    -0.956000000
C    -0.144000000     6.202000000    -2.056000000
H    -0.863000000     5.412000000    -2.257000000
C     0.570000000     8.150000000    -0.783000000
H     0.328000000     8.749000000     0.091000000
C     1.630000000     8.310000000    -1.687000000
H     2.265000000     9.187000000    -1.587000000
C     1.778000000     7.412000000    -2.682000000
H     2.518000000     7.512000000    -3.472000000
C     0.895000000     6.411000000    -2.922000000
O     1.113000000     5.680000000    -4.046000000
C     1.546000000     4.309000000    -4.030000000
C     1.420000000     3.677000000    -5.280000000
H     0.969000000     4.237000000    -6.095000000
C     1.998000000     2.435000000    -5.508000000
O     1.836000000     1.873000000    -6.765000000
C     1.575000000     0.573000000    -6.802000000
C     2.205000000    -0.301000000    -7.697000000
H     2.843000000     0.187000000    -8.430000000
C     2.030000000    -1.688000000    -7.637000000
H     2.638000000    -2.392000000    -8.199000000
C     1.012000000    -2.274000000    -6.870000000
H     0.893000000    -3.352000000    -6.803000000
C     0.302000000    -1.398000000    -6.058000000
C     0.607000000    -0.037000000    -5.959000000
H     0.022000000     0.519000000    -5.231000000
C    -0.586000000     1.298000000    -1.747000000
H    -0.599000000     2.300000000    -2.167000000
C     0.291000000     0.994000000    -0.710000000
H     1.014000000     1.654000000    -0.235000000
C     0.244000000    -0.247000000    -0.089000000
H     1.003000000    -0.575000000     0.616000000
C    -0.722000000    -1.189000000    -0.467000000
H    -0.717000000    -2.173000000    -0.005000000
C    -1.647000000    -0.879000000    -1.492000000
H    -2.414000000    -1.625000000    -1.682000000
C    -1.571000000     0.344000000    -2.143000000
C    -2.620000000     0.750000000    -3.190000000
O    -3.585000000     0.038000000    -3.251000000
O    -2.662000000     1.890000000    -3.726000000
O    -4.034000000     3.846000000    -2.817000000
H    -4.836000000     3.351000000    -2.654000000
H    -3.454000000     3.224000000    -3.257000000
O    -4.686000000     0.627000000    -8.583000000
H    -4.461000000     0.547000000    -7.656000000
H    -5.561000000     0.244000000    -8.651000000
O    -7.389000000     3.988000000    -6.791000000
H    -7.174000000     3.607000000    -7.643000000
H    -6.732000000     3.628000000    -6.195000000
O    -5.154000000     3.190000000    -5.328000000
H    -4.486000000     3.351000000    -4.662000000
H    -4.821000000     2.444000000    -5.827000000
O    -5.524000000    -2.497000000    -7.899000000
H    -4.722000000    -2.036000000    -7.652000000
H    -6.135000000    -1.802000000    -8.141000000
O    -1.963000000     2.166000000    -6.253000000
H    -2.056000000     3.112000000    -6.362000000
H    -2.146000000     2.013000000    -5.326000000
O    -3.010000000    -1.351000000    -6.853000000
H    -3.675000000    -0.795000000    -6.446000000
H    -2.346000000    -1.468000000    -6.173000000
O    -7.316000000    -0.019000000    -0.592000000
H    -7.337000000     0.842000000    -0.175000000
H    -8.078000000    -0.023000000    -1.172000000
O    -0.765000000     3.657000000    -8.591000000
H    -1.553000000     4.004000000    -8.172000000
H    -0.542000000     2.881000000    -8.076000000
O    -1.132000000    -0.356000000    -8.728000000
H    -2.018000000    -0.459000000    -8.380000000
H    -0.572000000    -0.804000000    -8.094000000
O    -5.773000000     1.902000000    -2.365000000
H    -6.450000000     1.402000000    -2.822000000
H    -4.969000000     1.404000000    -2.511000000
O    -2.651000000     4.712000000    -6.839000000
H    -3.497000000     4.718000000    -7.288000000
H    -2.540000000     5.610000000    -6.526000000
O    -6.185000000    -3.911000000    -3.874000000
H    -6.372000000    -4.381000000    -3.061000000
H    -6.129000000    -2.992000000    -3.612000000
O    -7.731000000     0.725000000    -5.629000000
H    -8.497000000     1.102000000    -6.061000000
H    -8.071000000     0.366000000    -4.809000000
O    -5.713000000    -1.357000000    -2.739000000
H    -6.040000000    -1.061000000    -1.889000000
H    -4.889000000    -0.884000000    -2.856000000
O    -5.509000000     6.477000000    -2.477000000
H    -4.794000000     5.968000000    -2.096000000
H    -5.690000000     6.046000000    -3.313000000
O    -4.733000000     0.212000000    -5.609000000
H    -5.625000000     0.531000000    -5.473000000
H    -4.390000000     0.077000000    -4.726000000
O    -7.397000000     2.566000000     0.046000000
H    -7.436000000     3.437000000     0.441000000
H    -6.678000000     2.621000000    -0.584000000
O    -8.749000000     0.596000000    -3.117000000
H    -8.815000000     1.478000000    -2.752000000
H    -9.412000000     0.091000000    -2.645000000
