215
-1460.07930
C    -3.689000000    -1.418000000     3.315000000
H    -3.262000000    -0.603000000     3.894000000
C    -2.893000000    -2.454000000     2.866000000
C    -3.268000000    -3.329000000     1.858000000
H    -2.614000000    -4.050000000     1.374000000
C    -1.400000000    -2.381000000     3.178000000
O    -1.130000000    -1.746000000     4.401000000
H    -0.932000000    -1.856000000     2.332000000
O    -0.786000000    -3.764000000     3.150000000
C     0.429000000    -4.004000000     2.647000000
C     0.435000000    -4.577000000     1.392000000
H    -0.447000000    -4.970000000     0.893000000
C     1.561000000    -4.548000000     0.614000000
O     1.430000000    -4.915000000    -0.789000000
C     2.755000000    -4.007000000     1.090000000
C     4.024000000    -3.889000000     0.219000000
H     4.907000000    -3.979000000     0.856000000
C     4.021000000    -2.602000000    -0.507000000
C     4.613000000    -1.473000000     0.055000000
H     5.034000000    -1.697000000     1.032000000
H     4.111000000    -4.682000000    -0.527000000
C     2.761000000    -3.513000000     2.353000000
H     3.631000000    -3.016000000     2.774000000
C     1.595000000    -3.492000000     3.125000000
C     1.644000000    -2.851000000     4.484000000
H     2.660000000    -2.882000000     4.882000000
H     1.077000000    -3.411000000     5.231000000
C     1.303000000    -1.393000000     4.504000000
C     2.300000000    -0.499000000     4.594000000
H     3.344000000    -0.771000000     4.459000000
C    -0.010000000    -0.939000000     4.428000000
C    -0.229000000     0.396000000     4.321000000
H    -1.279000000     0.673000000     4.347000000
C     0.762000000     1.328000000     4.496000000
O     0.414000000     2.677000000     4.450000000
C     0.593000000     3.327000000     3.196000000
C    -0.514000000     4.268000000     2.891000000
C    -0.220000000     5.480000000     2.270000000
H     0.794000000     5.873000000     2.263000000
C    -1.789000000     3.718000000     2.806000000
H    -2.005000000     2.766000000     3.285000000
O     1.884000000     3.964000000     3.241000000
H     0.528000000     2.586000000     2.385000000
C     2.086000000     0.898000000     4.565000000
C     3.197000000     1.892000000     4.592000000
H     4.124000000     1.440000000     4.951000000
H     2.935000000     2.780000000     5.171000000
C     3.529000000     2.276000000     3.116000000
C     4.356000000     1.546000000     2.295000000
H     4.801000000     0.665000000     2.749000000
C     2.884000000     3.360000000     2.528000000
C     2.800000000     3.506000000     1.211000000
H     2.136000000     4.260000000     0.797000000
C     3.642000000     2.812000000     0.344000000
O     3.410000000     2.939000000    -1.057000000
C     2.865000000     1.868000000    -1.821000000
C     2.022000000     2.494000000    -2.982000000
C     1.084000000     3.510000000    -2.852000000
H     1.040000000     3.942000000    -1.856000000
C     2.195000000     1.991000000    -4.296000000
H     2.916000000     1.225000000    -4.573000000
O     3.949000000     1.094000000    -2.433000000
H     2.205000000     1.317000000    -1.134000000
C     4.414000000     1.759000000     0.913000000
C     5.310000000     0.895000000     0.123000000
H     6.000000000     0.441000000     0.837000000
H     5.842000000     1.490000000    -0.622000000
C     4.709000000    -0.265000000    -0.644000000
C     4.095000000    -0.152000000    -1.885000000
C     3.534000000    -1.265000000    -2.482000000
H     3.147000000    -1.121000000    -3.488000000
C     3.451000000    -2.518000000    -1.817000000
O     2.672000000    -3.476000000    -2.368000000
C     1.405000000    -3.813000000    -1.716000000
H     0.982000000    -2.951000000    -1.178000000
C     0.396000000    -4.021000000    -2.812000000
C    -0.572000000    -4.999000000    -2.660000000
H    -0.600000000    -5.817000000    -1.945000000
C     0.405000000    -3.219000000    -3.895000000
H     1.211000000    -2.508000000    -4.058000000
C    -0.674000000    -3.340000000    -4.853000000
O    -0.857000000    -2.428000000    -5.903000000
C    -1.756000000    -4.197000000    -4.580000000
H    -2.670000000    -4.245000000    -5.167000000
C    -1.650000000    -5.059000000    -3.523000000
O    -2.674000000    -5.972000000    -3.207000000
C    -3.354000000    -6.047000000    -2.045000000
C    -3.840000000    -4.860000000    -1.442000000
H    -3.660000000    -3.916000000    -1.950000000
C    -3.371000000    -7.246000000    -1.392000000
H    -2.939000000    -8.138000000    -1.837000000
C    -4.012000000    -7.365000000    -0.124000000
H    -4.210000000    -8.325000000     0.346000000
C    -4.443000000    -6.202000000     0.479000000
H    -4.841000000    -6.293000000     1.487000000
C    -4.445000000    -4.994000000    -0.162000000
O    -5.060000000    -3.973000000     0.395000000
C    -4.567000000    -3.179000000     1.379000000
C    -5.481000000    -2.238000000     1.963000000
H    -6.498000000    -2.141000000     1.593000000
C    -5.009000000    -1.350000000     2.898000000
O    -5.885000000    -0.311000000     3.280000000
C    -5.500000000     0.934000000     3.718000000
C    -4.985000000     1.784000000     2.740000000
H    -4.806000000     1.501000000     1.705000000
C    -5.640000000     1.317000000     5.017000000
H    -5.889000000     0.645000000     5.834000000
C    -5.207000000     2.666000000     5.368000000
H    -5.198000000     2.894000000     6.431000000
C    -4.627000000     3.504000000     4.391000000
H    -4.141000000     4.430000000     4.687000000
C    -4.566000000     3.109000000     3.057000000
O    -4.088000000     3.973000000     2.061000000
C    -2.787000000     4.422000000     2.179000000
C    -2.424000000     5.515000000     1.467000000
H    -3.219000000     6.045000000     0.950000000
C    -1.204000000     6.088000000     1.523000000
O    -0.916000000     7.191000000     0.764000000
C    -0.603000000     7.088000000    -0.637000000
C    -0.722000000     5.939000000    -1.418000000
H    -1.125000000     4.988000000    -1.078000000
C    -0.317000000     8.347000000    -1.181000000
H    -0.211000000     9.208000000    -0.525000000
C    -0.140000000     8.428000000    -2.590000000
H     0.063000000     9.442000000    -2.925000000
C    -0.272000000     7.354000000    -3.397000000
H    -0.148000000     7.348000000    -4.477000000
C    -0.573000000     6.101000000    -2.772000000
O    -0.692000000     4.986000000    -3.572000000
C     0.244000000     4.007000000    -3.805000000
C     0.383000000     3.440000000    -5.063000000
H    -0.300000000     3.788000000    -5.833000000
C     1.271000000     2.440000000    -5.331000000
O     1.334000000     1.790000000    -6.546000000
C     1.162000000     0.428000000    -6.759000000
C     2.021000000    -0.151000000    -7.675000000
H     2.843000000     0.404000000    -8.120000000
C     1.867000000    -1.519000000    -8.007000000
H     2.513000000    -1.985000000    -8.746000000
C     0.881000000    -2.297000000    -7.419000000
H     0.674000000    -3.322000000    -7.716000000
C     0.152000000    -1.691000000    -6.411000000
C     0.316000000    -0.403000000    -6.050000000
H    -0.287000000    -0.027000000    -5.228000000
C    -0.781000000     1.405000000    -1.173000000
H    -1.192000000     2.302000000    -1.629000000
C     0.093000000     1.466000000    -0.094000000
H     0.309000000     2.445000000     0.326000000
C     0.639000000     0.359000000     0.553000000
H     1.215000000     0.524000000     1.402000000
C     0.220000000    -0.874000000     0.068000000
H     0.569000000    -1.705000000     0.676000000
C    -0.516000000    -1.017000000    -1.058000000
H    -0.810000000    -1.996000000    -1.428000000
C    -1.054000000     0.119000000    -1.731000000
C    -1.991000000    -0.007000000    -2.839000000
O    -2.565000000    -1.087000000    -2.983000000
O    -2.452000000     0.997000000    -3.410000000
O    -8.844000000     2.346000000    -1.694000000
H    -9.050000000     3.089000000    -1.126000000
H    -7.991000000     2.041000000    -1.388000000
O    -3.092000000     3.417000000    -4.101000000
H    -2.660000000     3.503000000    -4.951000000
H    -2.770000000     2.585000000    -3.753000000
O    -6.513000000     0.841000000    -5.803000000
H    -6.932000000     1.500000000    -5.250000000
H    -6.794000000     0.004000000    -5.433000000
O    -3.701000000     0.679000000    -6.177000000
H    -4.591000000     0.942000000    -5.942000000
H    -3.197000000     0.791000000    -5.371000000
O    -2.556000000    -2.242000000    -8.799000000
H    -2.819000000    -1.899000000    -7.945000000
H    -2.430000000    -3.180000000    -8.652000000
O    -6.811000000    -1.233000000    -3.535000000
H    -7.613000000    -0.906000000    -3.127000000
H    -6.121000000    -1.033000000    -2.903000000
O    -0.332000000     2.818000000    -9.387000000
H    -0.797000000     2.209000000    -8.813000000
H     0.448000000     3.066000000    -8.891000000
O    -3.493000000     6.487000000    -3.815000000
H    -3.837000000     5.628000000    -3.571000000
H    -2.542000000     6.378000000    -3.797000000
O    -1.751000000     0.935000000    -8.036000000
H    -1.655000000    -0.012000000    -7.931000000
H    -2.441000000     1.176000000    -7.418000000
O    -4.908000000    -0.814000000    -1.574000000
H    -4.505000000    -1.320000000    -0.868000000
H    -4.198000000    -0.669000000    -2.200000000
O    -4.848000000     3.288000000    -7.988000000
H    -5.270000000     4.051000000    -8.382000000
H    -5.263000000     2.538000000    -8.414000000
O    -2.428000000     4.611000000    -6.746000000
H    -3.135000000     4.143000000    -7.189000000
H    -2.584000000     5.533000000    -6.954000000
O    -5.658000000    -5.147000000    -4.268000000
H    -6.238000000    -4.494000000    -4.658000000
H    -4.861000000    -4.662000000    -4.054000000
O    -8.215000000    -2.922000000    -5.536000000
H    -7.463000000    -2.380000000    -5.297000000
H    -8.812000000    -2.845000000    -4.792000000
O    -7.977000000     0.046000000     0.626000000
H    -7.208000000     0.549000000     0.355000000
H    -8.493000000     0.660000000     1.149000000
O    -4.297000000    -2.652000000    -4.118000000
H    -5.093000000    -2.257000000    -3.763000000
H    -3.598000000    -2.047000000    -3.869000000
O    -5.307000000     3.869000000    -2.619000000
H    -4.509000000     3.597000000    -3.071000000
H    -5.953000000     3.977000000    -3.317000000
O    -4.623000000    -1.706000000    -6.835000000
H    -4.293000000    -2.010000000    -5.989000000
H    -4.458000000    -0.764000000    -6.832000000
O    -6.101000000     1.906000000    -0.868000000
H    -5.668000000     2.614000000    -1.344000000
H    -5.638000000     1.114000000    -1.143000000
