215
-1447.97520
C    -2.966000000    -2.291000000     3.975000000
H    -2.589000000    -1.430000000     4.521000000
C    -2.081000000    -3.235000000     3.463000000
C    -2.591000000    -4.306000000     2.715000000
H    -1.908000000    -4.920000000     2.133000000
C    -0.636000000    -2.836000000     3.418000000
O    -0.227000000    -2.024000000     4.556000000
H    -0.507000000    -2.191000000     2.537000000
O     0.188000000    -4.051000000     3.378000000
C     1.267000000    -3.995000000     2.562000000
C     1.011000000    -4.301000000     1.235000000
H     0.098000000    -4.787000000     0.899000000
C     1.978000000    -4.037000000     0.293000000
O     1.648000000    -4.353000000    -1.003000000
C     3.253000000    -3.539000000     0.577000000
C     4.349000000    -3.289000000    -0.445000000
H     5.349000000    -3.371000000    -0.014000000
C     4.206000000    -1.989000000    -1.184000000
C     4.884000000    -0.903000000    -0.659000000
H     5.399000000    -0.923000000     0.298000000
H     4.367000000    -4.091000000    -1.186000000
C     3.454000000    -3.106000000     1.912000000
H     4.424000000    -2.748000000     2.249000000
C     2.422000000    -3.264000000     2.882000000
C     2.579000000    -2.598000000     4.283000000
H     3.622000000    -2.517000000     4.597000000
H     2.228000000    -3.258000000     5.079000000
C     2.026000000    -1.219000000     4.374000000
C     2.910000000    -0.129000000     4.285000000
H     3.975000000    -0.347000000     4.293000000
C     0.676000000    -1.033000000     4.533000000
C     0.191000000     0.223000000     4.430000000
H    -0.884000000     0.384000000     4.448000000
C     0.991000000     1.303000000     4.211000000
O     0.479000000     2.526000000     4.037000000
C     0.384000000     3.133000000     2.692000000
C    -0.922000000     3.841000000     2.506000000
C    -1.143000000     4.934000000     1.698000000
H    -0.292000000     5.277000000     1.115000000
C    -2.036000000     3.247000000     3.051000000
H    -1.901000000     2.284000000     3.537000000
O     1.523000000     4.063000000     2.581000000
H     0.445000000     2.324000000     1.949000000
C     2.341000000     1.186000000     4.181000000
C     3.369000000     2.300000000     3.829000000
H     4.366000000     1.993000000     4.153000000
H     3.245000000     3.195000000     4.443000000
C     3.457000000     2.686000000     2.358000000
C     4.400000000     2.039000000     1.501000000
H     5.139000000     1.331000000     1.867000000
C     2.549000000     3.577000000     1.815000000
C     2.512000000     3.833000000     0.431000000
H     1.867000000     4.574000000    -0.034000000
C     3.422000000     3.222000000    -0.375000000
O     3.349000000     3.473000000    -1.729000000
C     2.709000000     2.375000000    -2.569000000
C     1.640000000     2.944000000    -3.574000000
C     0.718000000     3.938000000    -3.214000000
H     0.919000000     4.519000000    -2.317000000
C     1.440000000     2.318000000    -4.776000000
H     2.149000000     1.564000000    -5.112000000
O     3.761000000     1.576000000    -3.194000000
H     2.240000000     1.650000000    -1.887000000
C     4.386000000     2.312000000     0.169000000
C     5.321000000     1.609000000    -0.751000000
H     6.231000000     1.369000000    -0.198000000
H     5.528000000     2.236000000    -1.620000000
C     4.718000000     0.286000000    -1.395000000
C     3.969000000     0.327000000    -2.577000000
C     3.391000000    -0.788000000    -3.061000000
H     2.787000000    -0.731000000    -3.963000000
C     3.512000000    -2.014000000    -2.353000000
O     2.675000000    -3.057000000    -2.658000000
C     1.464000000    -3.197000000    -1.850000000
H     1.289000000    -2.272000000    -1.281000000
C     0.111000000    -3.254000000    -2.698000000
C    -0.993000000    -3.961000000    -2.181000000
H    -0.893000000    -4.516000000    -1.251000000
C    -0.096000000    -2.488000000    -3.850000000
H     0.773000000    -1.961000000    -4.236000000
C    -1.296000000    -2.606000000    -4.588000000
O    -1.482000000    -2.062000000    -5.857000000
C    -2.360000000    -3.265000000    -4.002000000
H    -3.343000000    -3.233000000    -4.466000000
C    -2.214000000    -3.964000000    -2.793000000
O    -3.390000000    -4.596000000    -2.380000000
C    -3.463000000    -5.551000000    -1.442000000
C    -3.975000000    -5.138000000    -0.240000000
H    -4.209000000    -4.103000000    -0.004000000
C    -2.907000000    -6.795000000    -1.617000000
H    -2.388000000    -6.960000000    -2.558000000
C    -3.135000000    -7.729000000    -0.659000000
H    -2.846000000    -8.760000000    -0.848000000
C    -3.662000000    -7.389000000     0.590000000
H    -3.714000000    -8.069000000     1.436000000
C    -4.041000000    -6.049000000     0.778000000
O    -4.417000000    -5.630000000     2.046000000
C    -3.959000000    -4.513000000     2.687000000
C    -4.846000000    -3.594000000     3.273000000
H    -5.921000000    -3.680000000     3.139000000
C    -4.358000000    -2.431000000     3.886000000
O    -5.260000000    -1.600000000     4.530000000
C    -4.876000000    -0.262000000     4.813000000
C    -4.609000000     0.711000000     3.807000000
H    -4.685000000     0.405000000     2.767000000
C    -4.653000000     0.059000000     6.160000000
H    -4.928000000    -0.593000000     6.985000000
C    -4.453000000     1.385000000     6.472000000
H    -4.528000000     1.609000000     7.533000000
C    -4.345000000     2.316000000     5.458000000
H    -4.214000000     3.363000000     5.722000000
C    -4.352000000     2.042000000     4.125000000
O    -4.412000000     3.030000000     3.144000000
C    -3.319000000     3.714000000     2.778000000
C    -3.519000000     4.795000000     2.001000000
H    -4.537000000     5.142000000     1.850000000
C    -2.426000000     5.360000000     1.359000000
O    -2.622000000     6.387000000     0.526000000
C    -1.747000000     6.688000000    -0.548000000
C    -1.802000000     5.985000000    -1.737000000
H    -2.420000000     5.091000000    -1.708000000
C    -0.814000000     7.694000000    -0.428000000
H    -0.991000000     8.285000000     0.467000000
C     0.008000000     8.072000000    -1.496000000
H     0.716000000     8.894000000    -1.420000000
C    -0.045000000     7.351000000    -2.669000000
H     0.675000000     7.517000000    -3.466000000
C    -0.960000000     6.322000000    -2.791000000
O    -1.039000000     5.473000000    -3.845000000
C    -0.169000000     4.422000000    -4.142000000
C    -0.397000000     3.756000000    -5.390000000
H    -1.200000000     4.084000000    -6.044000000
C     0.455000000     2.698000000    -5.701000000
O     0.319000000     2.085000000    -6.924000000
C     0.396000000     0.755000000    -7.080000000
C     1.101000000     0.186000000    -8.149000000
H     1.847000000     0.856000000    -8.569000000
C     0.988000000    -1.219000000    -8.360000000
H     1.506000000    -1.612000000    -9.231000000
C     0.102000000    -1.987000000    -7.564000000
H    -0.076000000    -3.019000000    -7.854000000
C    -0.557000000    -1.390000000    -6.498000000
C    -0.470000000     0.013000000    -6.388000000
H    -1.155000000     0.553000000    -5.739000000
C    -1.504000000     1.135000000    -2.245000000
H    -1.545000000     1.955000000    -2.958000000
C    -0.544000000     1.134000000    -1.251000000
H     0.264000000     1.861000000    -1.288000000
C    -0.526000000     0.081000000    -0.284000000
H     0.253000000     0.002000000     0.409000000
C    -1.487000000    -0.983000000    -0.369000000
H    -1.404000000    -1.852000000     0.279000000
C    -2.477000000    -0.925000000    -1.344000000
H    -3.253000000    -1.670000000    -1.502000000
C    -2.486000000     0.131000000    -2.298000000
C    -3.555000000     0.220000000    -3.378000000
O    -4.420000000    -0.620000000    -3.479000000
O    -3.657000000     1.268000000    -3.977000000
O    -6.574000000     1.085000000    -4.038000000
H    -6.630000000     0.249000000    -3.575000000
H    -5.645000000     1.313000000    -4.009000000
O    -6.666000000    -4.373000000    -3.919000000
H    -5.980000000    -4.989000000    -3.660000000
H    -7.192000000    -4.255000000    -3.128000000
O    -7.351000000     3.499000000    -5.045000000
H    -7.777000000     3.241000000    -5.863000000
H    -6.926000000     2.700000000    -4.734000000
O    -7.433000000    -0.321000000    -7.238000000
H    -8.325000000    -0.188000000    -6.917000000
H    -7.112000000    -1.076000000    -6.744000000
O    -3.449000000    -0.827000000    -8.033000000
H    -4.116000000    -0.171000000    -7.830000000
H    -3.164000000    -1.151000000    -7.178000000
O    -8.867000000    -2.498000000    -2.748000000
H    -9.293000000    -1.642000000    -2.800000000
H    -7.931000000    -2.300000000    -2.729000000
O    -5.264000000     3.519000000    -1.626000000
H    -4.746000000     3.133000000    -0.921000000
H    -4.627000000     3.709000000    -2.315000000
O    -3.675000000     3.769000000    -3.628000000
H    -2.766000000     3.958000000    -3.861000000
H    -3.832000000     2.888000000    -3.966000000
O    -4.693000000     6.202000000    -4.352000000
H    -4.574000000     5.286000000    -4.100000000
H    -4.002000000     6.364000000    -4.995000000
O    -6.079000000    -0.497000000     1.053000000
H    -6.723000000    -0.177000000     1.686000000
H    -5.538000000     0.267000000     0.855000000
O    -9.364000000     1.889000000    -3.684000000
H    -8.481000000     2.097000000    -3.989000000
H    -9.906000000     1.939000000    -4.472000000
O    -3.981000000     1.624000000     0.119000000
H    -3.480000000     1.345000000    -0.647000000
H    -3.343000000     2.079000000     0.670000000
O    -4.868000000     1.139000000    -6.494000000
H    -4.535000000     0.980000000    -5.611000000
H    -5.780000000     0.848000000    -6.462000000
O    -8.034000000     3.187000000    -1.731000000
H    -8.277000000     2.407000000    -2.229000000
H    -7.116000000     3.338000000    -1.955000000
O    -6.434000000    -1.429000000    -1.837000000
H    -6.440000000    -1.123000000    -0.930000000
H    -5.550000000    -1.235000000    -2.150000000
O    -5.883000000    -2.054000000    -5.286000000
H    -6.153000000    -2.855000000    -4.838000000
H    -5.424000000    -1.548000000    -4.615000000
O    -5.228000000     2.488000000    -9.075000000
H    -5.192000000     3.357000000    -8.677000000
H    -5.068000000     1.885000000    -8.349000000
O    -4.390000000    -3.365000000    -7.718000000
H    -4.921000000    -3.461000000    -6.927000000
H    -4.256000000    -2.421000000    -7.804000000
O    -7.312000000     2.999000000     1.112000000
H    -7.508000000     2.642000000     0.246000000
H    -8.025000000     2.682000000     1.668000000
