215
-1465.40594
C    -3.656000000    -1.085000000     2.875000000
H    -3.310000000    -0.346000000     3.593000000
C    -2.842000000    -2.221000000     2.699000000
C    -3.318000000    -3.254000000     1.892000000
H    -2.703000000    -4.103000000     1.603000000
C    -1.388000000    -2.185000000     3.140000000
O    -1.228000000    -1.518000000     4.436000000
H    -0.761000000    -1.653000000     2.408000000
O    -0.813000000    -3.489000000     3.229000000
C     0.472000000    -3.718000000     2.772000000
C     0.618000000    -4.339000000     1.526000000
H    -0.282000000    -4.627000000     0.988000000
C     1.757000000    -4.254000000     0.845000000
O     1.743000000    -4.691000000    -0.475000000
C     2.894000000    -3.651000000     1.337000000
C     4.156000000    -3.465000000     0.475000000
H     5.088000000    -3.385000000     1.038000000
C     4.156000000    -2.247000000    -0.441000000
C     4.774000000    -1.086000000     0.053000000
H     5.136000000    -1.146000000     1.076000000
H     4.279000000    -4.415000000    -0.049000000
C     2.833000000    -3.174000000     2.647000000
H     3.710000000    -2.742000000     3.122000000
C     1.636000000    -3.141000000     3.367000000
C     1.624000000    -2.552000000     4.798000000
H     2.617000000    -2.564000000     5.251000000
H     1.012000000    -3.080000000     5.532000000
C     1.151000000    -1.060000000     4.700000000
C     2.224000000    -0.173000000     4.484000000
H     3.237000000    -0.567000000     4.525000000
C    -0.173000000    -0.649000000     4.613000000
C    -0.488000000     0.733000000     4.547000000
H    -1.509000000     1.100000000     4.481000000
C     0.536000000     1.639000000     4.451000000
O     0.273000000     2.939000000     4.248000000
C     0.219000000     3.410000000     2.899000000
C    -0.984000000     4.249000000     2.539000000
C    -1.054000000     5.068000000     1.396000000
H    -0.119000000     5.187000000     0.854000000
C    -2.128000000     4.169000000     3.362000000
H    -1.990000000     3.631000000     4.297000000
O     1.405000000     4.100000000     2.556000000
H     0.231000000     2.588000000     2.168000000
C     1.892000000     1.174000000     4.345000000
C     3.042000000     2.111000000     4.066000000
H     3.949000000     1.690000000     4.506000000
H     2.896000000     2.929000000     4.774000000
C     3.193000000     2.522000000     2.565000000
C     4.098000000     1.765000000     1.899000000
H     4.743000000     1.009000000     2.338000000
C     2.374000000     3.429000000     1.900000000
C     2.600000000     3.665000000     0.591000000
H     1.939000000     4.339000000     0.053000000
C     3.572000000     2.960000000    -0.133000000
O     3.482000000     3.068000000    -1.545000000
C     2.969000000     1.913000000    -2.269000000
C     2.027000000     2.342000000    -3.321000000
C     1.306000000     3.530000000    -3.227000000
H     1.308000000     4.015000000    -2.254000000
C     1.831000000     1.597000000    -4.463000000
H     2.442000000     0.719000000    -4.655000000
O     4.081000000     1.151000000    -2.711000000
H     2.346000000     1.334000000    -1.571000000
C     4.369000000     2.016000000     0.536000000
C     5.449000000     1.307000000    -0.216000000
H     6.256000000     1.127000000     0.498000000
H     5.867000000     1.907000000    -1.027000000
C     4.815000000     0.059000000    -0.699000000
C     4.217000000     0.006000000    -1.954000000
C     3.554000000    -1.129000000    -2.418000000
H     3.079000000    -1.086000000    -3.394000000
C     3.556000000    -2.289000000    -1.716000000
O     2.863000000    -3.382000000    -2.069000000
C     1.589000000    -3.652000000    -1.396000000
H     1.230000000    -2.793000000    -0.810000000
C     0.596000000    -3.982000000    -2.477000000
C    -0.477000000    -4.858000000    -2.186000000
H    -0.606000000    -5.281000000    -1.192000000
C     0.681000000    -3.447000000    -3.787000000
H     1.526000000    -2.818000000    -4.054000000
C    -0.223000000    -3.862000000    -4.789000000
O    -0.189000000    -3.419000000    -6.085000000
C    -1.272000000    -4.689000000    -4.466000000
H    -1.917000000    -5.077000000    -5.251000000
C    -1.415000000    -5.257000000    -3.193000000
O    -2.433000000    -6.171000000    -2.906000000
C    -3.186000000    -6.192000000    -1.782000000
C    -3.849000000    -5.073000000    -1.227000000
H    -3.827000000    -4.090000000    -1.690000000
C    -3.083000000    -7.342000000    -1.048000000
H    -2.527000000    -8.158000000    -1.503000000
C    -3.718000000    -7.449000000     0.163000000
H    -3.758000000    -8.395000000     0.697000000
C    -4.521000000    -6.440000000     0.709000000
H    -5.117000000    -6.625000000     1.598000000
C    -4.565000000    -5.222000000    -0.002000000
O    -5.145000000    -4.020000000     0.499000000
C    -4.598000000    -3.081000000     1.317000000
C    -5.392000000    -1.978000000     1.515000000
H    -6.328000000    -1.808000000     0.990000000
C    -4.947000000    -1.035000000     2.398000000
O    -5.696000000     0.076000000     2.718000000
C    -5.312000000     1.007000000     3.683000000
C    -5.037000000     2.324000000     3.317000000
H    -4.946000000     2.567000000     2.261000000
C    -5.347000000     0.714000000     5.008000000
H    -5.704000000    -0.246000000     5.371000000
C    -5.129000000     1.709000000     6.005000000
H    -5.194000000     1.484000000     7.066000000
C    -4.871000000     3.009000000     5.607000000
H    -4.558000000     3.774000000     6.313000000
C    -4.763000000     3.318000000     4.243000000
O    -4.457000000     4.608000000     3.822000000
C    -3.314000000     4.801000000     2.983000000
C    -3.372000000     5.523000000     1.851000000
H    -4.329000000     5.993000000     1.637000000
C    -2.284000000     5.632000000     0.998000000
O    -2.327000000     6.291000000    -0.213000000
C    -1.286000000     6.565000000    -1.072000000
C    -1.132000000     5.785000000    -2.209000000
H    -1.782000000     4.915000000    -2.258000000
C    -0.452000000     7.668000000    -0.935000000
H    -0.634000000     8.385000000    -0.138000000
C     0.444000000     8.045000000    -1.901000000
H     1.087000000     8.918000000    -1.822000000
C     0.631000000     7.288000000    -3.048000000
H     1.327000000     7.636000000    -3.807000000
C    -0.160000000     6.101000000    -3.154000000
O    -0.107000000     5.262000000    -4.287000000
C     0.508000000     3.957000000    -4.293000000
C     0.259000000     3.136000000    -5.448000000
H    -0.387000000     3.453000000    -6.263000000
C     0.910000000     1.932000000    -5.522000000
O     0.773000000     1.214000000    -6.647000000
C     1.101000000    -0.082000000    -6.880000000
C     2.103000000    -0.381000000    -7.775000000
H     2.491000000     0.471000000    -8.327000000
C     2.366000000    -1.699000000    -8.165000000
H     2.998000000    -1.876000000    -9.031000000
C     1.613000000    -2.738000000    -7.633000000
H     1.673000000    -3.780000000    -7.937000000
C     0.647000000    -2.476000000    -6.635000000
C     0.382000000    -1.162000000    -6.250000000
H    -0.396000000    -0.881000000    -5.544000000
C    -1.557000000     1.689000000    -2.206000000
H    -1.883000000     2.531000000    -2.812000000
C    -0.691000000     1.944000000    -1.217000000
H    -0.344000000     2.935000000    -0.938000000
C    -0.096000000     0.842000000    -0.510000000
H     0.656000000     1.006000000     0.280000000
C    -0.611000000    -0.457000000    -0.693000000
H    -0.298000000    -1.212000000     0.022000000
C    -1.519000000    -0.620000000    -1.666000000
H    -1.834000000    -1.630000000    -1.912000000
C    -1.959000000     0.405000000    -2.515000000
C    -2.846000000     0.076000000    -3.732000000
O    -3.039000000    -1.057000000    -4.185000000
O    -3.350000000     1.026000000    -4.290000000
O    -6.224000000     0.456000000    -3.816000000
H    -5.576000000     0.709000000    -4.474000000
H    -5.707000000     0.082000000    -3.102000000
O    -5.184000000     0.879000000    -8.790000000
H    -6.075000000     0.882000000    -8.442000000
H    -5.004000000    -0.042000000    -8.980000000
O    -8.591000000     2.285000000    -5.812000000
H    -9.205000000     3.017000000    -5.752000000
H    -7.752000000     2.694000000    -6.023000000
O    -7.423000000     0.619000000     0.240000000
H    -8.113000000    -0.037000000     0.138000000
H    -7.576000000     1.239000000    -0.473000000
O    -7.685000000     2.091000000    -2.008000000
H    -8.516000000     2.240000000    -2.460000000
H    -7.242000000     1.425000000    -2.534000000
O    -4.557000000    -6.410000000    -5.107000000
H    -3.662000000    -6.750000000    -5.120000000
H    -4.499000000    -5.605000000    -4.591000000
O    -3.264000000     4.475000000    -6.815000000
H    -3.449000000     3.538000000    -6.868000000
H    -3.374000000     4.793000000    -7.711000000
O    -1.057000000     0.377000000    -8.944000000
H    -0.674000000    -0.338000000    -9.452000000
H    -1.666000000    -0.054000000    -8.344000000
O    -4.269000000     3.389000000    -4.102000000
H    -3.596000000     3.871000000    -4.584000000
H    -3.975000000     2.479000000    -4.126000000
O    -3.793000000    -3.657000000    -7.158000000
H    -3.432000000    -2.772000000    -7.120000000
H    -4.069000000    -3.843000000    -6.260000000
O    -5.873000000     4.070000000    -1.931000000
H    -5.318000000     3.924000000    -2.698000000
H    -6.239000000     3.209000000    -1.733000000
O    -4.354000000    -3.549000000    -4.556000000
H    -3.855000000    -2.756000000    -4.363000000
H    -5.234000000    -3.365000000    -4.227000000
O    -6.417000000     4.110000000    -5.930000000
H    -5.769000000     3.788000000    -5.304000000
H    -6.447000000     5.055000000    -5.779000000
O    -3.013000000     2.108000000    -9.881000000
H    -2.253000000     1.680000000    -9.485000000
H    -3.764000000     1.741000000    -9.415000000
O    -3.010000000     6.714000000    -4.678000000
H    -3.341000000     5.893000000    -5.041000000
H    -3.335000000     6.726000000    -3.777000000
O    -2.421000000     1.688000000    -6.672000000
H    -1.521000000     1.368000000    -6.737000000
H    -2.768000000     1.269000000    -5.885000000
O    -5.121000000    -0.309000000    -1.354000000
H    -4.365000000    -0.012000000    -0.848000000
H    -5.875000000    -0.104000000    -0.802000000
O    -3.278000000    -0.895000000    -6.855000000
H    -3.568000000     0.006000000    -6.992000000
H    -3.179000000    -0.973000000    -5.906000000
O    -8.743000000    -0.440000000    -5.117000000
H    -7.840000000    -0.650000000    -4.878000000
H    -8.751000000     0.514000000    -5.203000000
