215
-1438.66220
C    -3.613000000    -1.066000000     3.500000000
H    -3.228000000    -0.782000000     4.476000000
C    -2.797000000    -1.964000000     2.743000000
C    -3.372000000    -2.442000000     1.517000000
H    -2.710000000    -2.980000000     0.844000000
C    -1.333000000    -2.194000000     3.101000000
O    -0.954000000    -1.683000000     4.433000000
H    -0.800000000    -1.615000000     2.332000000
O    -0.980000000    -3.503000000     2.968000000
C     0.157000000    -3.825000000     2.214000000
C    -0.048000000    -4.398000000     0.987000000
H    -1.084000000    -4.572000000     0.708000000
C     1.080000000    -4.532000000     0.205000000
O     0.866000000    -4.945000000    -1.101000000
C     2.422000000    -4.316000000     0.676000000
C     3.609000000    -4.371000000    -0.239000000
H     4.498000000    -4.520000000     0.377000000
C     3.798000000    -3.044000000    -1.056000000
C     4.609000000    -2.019000000    -0.575000000
H     5.133000000    -2.120000000     0.372000000
H     3.547000000    -5.232000000    -0.908000000
C     2.522000000    -3.965000000     1.932000000
H     3.495000000    -4.000000000     2.416000000
C     1.437000000    -3.552000000     2.689000000
C     1.628000000    -2.973000000     4.091000000
H     2.684000000    -3.147000000     4.305000000
H     1.097000000    -3.577000000     4.830000000
C     1.422000000    -1.464000000     4.272000000
C     2.598000000    -0.629000000     4.160000000
H     3.504000000    -1.101000000     3.789000000
C     0.192000000    -0.880000000     4.537000000
C     0.075000000     0.520000000     4.601000000
H    -0.908000000     0.983000000     4.597000000
C     1.235000000     1.305000000     4.489000000
O     0.992000000     2.656000000     4.347000000
C     0.941000000     3.302000000     3.081000000
C    -0.275000000     4.203000000     2.989000000
C    -0.338000000     5.085000000     1.929000000
H     0.389000000     5.085000000     1.122000000
C    -1.330000000     4.096000000     3.917000000
H    -1.241000000     3.341000000     4.693000000
O     2.243000000     3.923000000     2.784000000
H     0.749000000     2.514000000     2.338000000
C     2.511000000     0.753000000     4.295000000
C     3.716000000     1.631000000     4.095000000
H     4.647000000     1.141000000     4.388000000
H     3.663000000     2.498000000     4.756000000
C     3.807000000     2.088000000     2.658000000
C     4.486000000     1.210000000     1.764000000
H     4.885000000     0.245000000     2.064000000
C     3.190000000     3.176000000     2.113000000
C     3.166000000     3.348000000     0.731000000
H     2.530000000     4.110000000     0.287000000
C     3.877000000     2.488000000    -0.101000000
O     3.740000000     2.658000000    -1.486000000
C     2.854000000     1.695000000    -2.178000000
C     1.976000000     2.360000000    -3.228000000
C     1.398000000     3.560000000    -2.932000000
H     1.657000000     4.067000000    -2.006000000
C     1.528000000     1.683000000    -4.387000000
H     1.898000000     0.675000000    -4.555000000
O     3.687000000     0.734000000    -2.820000000
H     2.173000000     1.301000000    -1.409000000
C     4.588000000     1.403000000     0.392000000
C     5.413000000     0.451000000    -0.497000000
H     6.193000000    -0.005000000     0.117000000
H     5.870000000     1.046000000    -1.290000000
C     4.573000000    -0.710000000    -1.137000000
C     3.738000000    -0.532000000    -2.292000000
C     3.046000000    -1.597000000    -2.824000000
H     2.370000000    -1.471000000    -3.666000000
C     3.074000000    -2.849000000    -2.236000000
O     2.228000000    -3.879000000    -2.758000000
C     0.943000000    -3.929000000    -2.121000000
H     0.688000000    -2.955000000    -1.678000000
C    -0.132000000    -4.207000000    -3.128000000
C    -1.270000000    -4.877000000    -2.875000000
H    -1.479000000    -5.326000000    -1.908000000
C    -0.076000000    -3.559000000    -4.368000000
H     0.739000000    -2.868000000    -4.571000000
C    -1.090000000    -3.602000000    -5.325000000
O    -0.948000000    -3.086000000    -6.591000000
C    -2.219000000    -4.358000000    -5.044000000
H    -2.995000000    -4.520000000    -5.788000000
C    -2.306000000    -4.935000000    -3.748000000
O    -3.501000000    -5.507000000    -3.394000000
C    -4.175000000    -5.398000000    -2.227000000
C    -4.572000000    -4.082000000    -1.801000000
H    -4.423000000    -3.130000000    -2.303000000
C    -4.287000000    -6.527000000    -1.389000000
H    -3.921000000    -7.475000000    -1.775000000
C    -4.731000000    -6.363000000    -0.038000000
H    -4.627000000    -7.255000000     0.573000000
C    -5.079000000    -5.049000000     0.363000000
H    -5.503000000    -4.819000000     1.337000000
C    -5.054000000    -3.902000000    -0.456000000
O    -5.181000000    -2.588000000    -0.076000000
C    -4.665000000    -2.109000000     1.138000000
C    -5.424000000    -1.237000000     1.897000000
H    -6.446000000    -0.947000000     1.667000000
C    -4.914000000    -0.690000000     3.053000000
O    -5.620000000     0.259000000     3.714000000
C    -4.987000000     1.184000000     4.581000000
C    -4.547000000     2.426000000     4.051000000
H    -4.747000000     2.592000000     2.996000000
C    -4.692000000     0.855000000     5.886000000
H    -4.916000000    -0.100000000     6.355000000
C    -4.066000000     1.855000000     6.681000000
H    -3.791000000     1.478000000     7.663000000
C    -3.759000000     3.110000000     6.202000000
H    -3.156000000     3.866000000     6.698000000
C    -3.999000000     3.401000000     4.899000000
O    -3.642000000     4.664000000     4.413000000
C    -2.488000000     4.915000000     3.686000000
C    -2.524000000     5.751000000     2.535000000
H    -3.380000000     6.390000000     2.334000000
C    -1.434000000     5.874000000     1.704000000
O    -1.584000000     6.575000000     0.575000000
C    -0.657000000     6.764000000    -0.387000000
C    -0.772000000     6.050000000    -1.538000000
H    -1.527000000     5.273000000    -1.626000000
C     0.282000000     7.696000000    -0.183000000
H     0.363000000     8.249000000     0.749000000
C     1.196000000     7.957000000    -1.210000000
H     1.934000000     8.736000000    -1.041000000
C     1.127000000     7.238000000    -2.324000000
H     1.849000000     7.359000000    -3.128000000
C     0.147000000     6.265000000    -2.588000000
O     0.050000000     5.513000000    -3.716000000
C     0.553000000     4.226000000    -3.921000000
C     0.174000000     3.498000000    -5.032000000
H    -0.369000000     3.953000000    -5.856000000
C     0.662000000     2.220000000    -5.273000000
O     0.189000000     1.548000000    -6.417000000
C     0.476000000     0.252000000    -6.804000000
C     1.659000000    -0.069000000    -7.408000000
H     2.373000000     0.724000000    -7.616000000
C     2.007000000    -1.351000000    -7.695000000
H     2.960000000    -1.463000000    -8.206000000
C     1.159000000    -2.395000000    -7.484000000
H     1.434000000    -3.398000000    -7.801000000
C    -0.023000000    -2.116000000    -6.846000000
C    -0.341000000    -0.813000000    -6.452000000
H    -1.297000000    -0.611000000    -5.974000000
C    -1.079000000     1.683000000    -1.669000000
H    -1.364000000     2.609000000    -2.161000000
C    -0.185000000     1.777000000    -0.586000000
H     0.290000000     2.724000000    -0.343000000
C     0.193000000     0.615000000     0.101000000
H     0.944000000     0.701000000     0.900000000
C    -0.399000000    -0.603000000    -0.247000000
H    -0.094000000    -1.483000000     0.315000000
C    -1.342000000    -0.666000000    -1.322000000
H    -1.830000000    -1.589000000    -1.625000000
C    -1.696000000     0.458000000    -2.036000000
C    -2.711000000     0.418000000    -3.103000000
O    -3.276000000    -0.631000000    -3.284000000
O    -2.985000000     1.381000000    -3.777000000
O    -5.337000000     0.277000000    -5.562000000
H    -4.735000000     0.230000000    -6.304000000
H    -4.768000000     0.314000000    -4.793000000
O    -7.515000000    -1.070000000    -6.619000000
H    -6.625000000    -0.789000000    -6.408000000
H    -8.014000000    -0.256000000    -6.685000000
O    -6.144000000     3.228000000    -4.709000000
H    -6.357000000     3.536000000    -5.590000000
H    -5.494000000     2.539000000    -4.847000000
O    -7.829000000     3.285000000    -1.973000000
H    -7.589000000     3.351000000    -2.898000000
H    -8.775000000     3.139000000    -1.980000000
O    -7.690000000     0.281000000    -4.067000000
H    -7.060000000     0.040000000    -3.388000000
H    -7.155000000     0.429000000    -4.847000000
O    -2.879000000     5.611000000    -6.135000000
H    -3.225000000     5.747000000    -5.253000000
H    -2.806000000     4.660000000    -6.219000000
O    -7.720000000    -2.727000000    -1.956000000
H    -6.945000000    -2.248000000    -2.248000000
H    -7.631000000    -2.769000000    -1.004000000
O    -4.062000000     6.093000000    -3.936000000
H    -4.731000000     5.792000000    -3.322000000
H    -3.739000000     6.911000000    -3.557000000
O    -4.610000000     2.801000000    -2.463000000
H    -5.212000000     3.205000000    -3.088000000
H    -3.943000000     2.384000000    -3.009000000
O    -7.151000000     1.164000000    -0.357000000
H    -6.652000000     0.799000000    -1.088000000
H    -7.269000000     2.086000000    -0.585000000
O    -3.274000000    -2.394000000    -8.611000000
H    -3.059000000    -2.701000000    -7.731000000
H    -4.090000000    -2.844000000    -8.829000000
O    -4.815000000     3.662000000    -7.957000000
H    -4.475000000     3.406000000    -7.100000000
H    -5.614000000     4.151000000    -7.761000000
O    -3.255000000     1.181000000     1.099000000
H    -3.516000000     0.274000000     0.941000000
H    -2.408000000     1.267000000     0.662000000
O    -5.696000000    -3.527000000    -7.303000000
H    -6.159000000    -2.829000000    -7.766000000
H    -5.085000000    -3.067000000    -6.727000000
O    -2.906000000     2.979000000    -6.097000000
H    -2.342000000     2.350000000    -6.548000000
H    -2.793000000     2.780000000    -5.168000000
O    -4.161000000     3.366000000     0.035000000
H    -4.198000000     3.114000000    -0.888000000
H    -3.952000000     2.553000000     0.496000000
O    -5.735000000    -0.626000000    -2.126000000
H    -4.892000000    -0.526000000    -2.568000000
H    -5.522000000    -1.057000000    -1.298000000
O    -3.781000000    -2.019000000    -5.705000000
H    -3.014000000    -1.683000000    -5.241000000
H    -4.317000000    -2.421000000    -5.022000000
O    -3.733000000     0.280000000    -7.717000000
H    -3.309000000    -0.575000000    -7.782000000
H    -3.077000000     0.898000000    -8.038000000
