215
-1440.05792
C    -2.929000000    -1.424000000     3.727000000
H    -2.375000000    -0.542000000     4.040000000
C    -2.290000000    -2.609000000     3.366000000
C    -2.919000000    -3.674000000     2.762000000
H    -2.343000000    -4.447000000     2.261000000
C    -0.715000000    -2.590000000     3.316000000
O    -0.216000000    -1.948000000     4.470000000
H    -0.367000000    -2.055000000     2.420000000
O    -0.172000000    -3.959000000     3.259000000
C     0.917000000    -4.105000000     2.406000000
C     0.689000000    -4.520000000     1.105000000
H    -0.300000000    -4.903000000     0.868000000
C     1.665000000    -4.494000000     0.116000000
O     1.211000000    -4.785000000    -1.132000000
C     2.984000000    -4.084000000     0.408000000
C     4.006000000    -3.843000000    -0.703000000
H     5.009000000    -3.773000000    -0.277000000
C     3.788000000    -2.557000000    -1.433000000
C     4.494000000    -1.452000000    -0.898000000
H     5.063000000    -1.543000000     0.024000000
H     4.248000000    -4.725000000    -1.300000000
C     3.196000000    -3.567000000     1.662000000
H     4.153000000    -3.075000000     1.814000000
C     2.181000000    -3.502000000     2.639000000
C     2.544000000    -2.913000000     3.939000000
H     3.600000000    -3.045000000     4.184000000
H     2.048000000    -3.535000000     4.687000000
C     2.155000000    -1.412000000     4.044000000
C     3.103000000    -0.472000000     3.673000000
H     4.157000000    -0.707000000     3.548000000
C     0.780000000    -1.028000000     4.303000000
C     0.534000000     0.379000000     4.462000000
H    -0.494000000     0.693000000     4.624000000
C     1.542000000     1.311000000     4.217000000
O     1.217000000     2.667000000     4.197000000
C     0.839000000     3.269000000     2.928000000
C    -0.340000000     4.296000000     2.943000000
C    -0.382000000     5.447000000     2.153000000
H     0.505000000     5.795000000     1.630000000
C    -1.547000000     3.897000000     3.563000000
H    -1.639000000     2.943000000     4.076000000
O     1.978000000     3.967000000     2.376000000
H     0.499000000     2.526000000     2.192000000
C     2.822000000     0.905000000     3.893000000
C     3.835000000     2.013000000     3.474000000
H     4.804000000     1.648000000     3.821000000
H     3.632000000     2.871000000     4.118000000
C     3.813000000     2.371000000     1.975000000
C     4.623000000     1.695000000     1.042000000
H     5.227000000     0.845000000     1.348000000
C     2.819000000     3.239000000     1.495000000
C     2.654000000     3.486000000     0.110000000
H     1.809000000     4.062000000    -0.259000000
C     3.590000000     2.798000000    -0.801000000
O     3.403000000     2.943000000    -2.170000000
C     2.516000000     1.965000000    -2.756000000
C     1.370000000     2.617000000    -3.536000000
C     0.810000000     3.841000000    -3.072000000
H     1.246000000     4.351000000    -2.216000000
C     0.847000000     1.955000000    -4.618000000
H     1.380000000     1.032000000    -4.829000000
O     3.390000000     0.998000000    -3.464000000
H     1.952000000     1.389000000    -2.007000000
C     4.483000000     1.916000000    -0.310000000
C     5.284000000     0.942000000    -1.219000000
H     6.214000000     0.628000000    -0.739000000
H     5.564000000     1.520000000    -2.102000000
C     4.417000000    -0.254000000    -1.646000000
C     3.564000000    -0.147000000    -2.744000000
C     2.843000000    -1.250000000    -3.130000000
H     2.208000000    -1.087000000    -3.996000000
C     2.955000000    -2.477000000    -2.543000000
O     2.146000000    -3.504000000    -2.962000000
C     1.003000000    -3.697000000    -2.039000000
H     0.806000000    -2.800000000    -1.432000000
C    -0.195000000    -3.836000000    -2.912000000
C    -1.288000000    -4.632000000    -2.438000000
H    -1.310000000    -5.094000000    -1.454000000
C    -0.294000000    -3.337000000    -4.251000000
H     0.558000000    -2.894000000    -4.759000000
C    -1.467000000    -3.452000000    -4.954000000
O    -1.568000000    -3.064000000    -6.227000000
C    -2.600000000    -4.039000000    -4.401000000
H    -3.537000000    -4.202000000    -4.926000000
C    -2.506000000    -4.715000000    -3.139000000
O    -3.675000000    -5.283000000    -2.596000000
C    -3.834000000    -5.716000000    -1.341000000
C    -4.302000000    -4.926000000    -0.277000000
H    -4.535000000    -3.899000000    -0.545000000
C    -3.376000000    -7.081000000    -1.164000000
H    -3.152000000    -7.645000000    -2.065000000
C    -3.438000000    -7.624000000     0.123000000
H    -3.139000000    -8.654000000     0.301000000
C    -4.024000000    -6.830000000     1.164000000
H    -4.050000000    -7.306000000     2.141000000
C    -4.441000000    -5.469000000     0.992000000
O    -4.929000000    -4.667000000     1.933000000
C    -4.306000000    -3.645000000     2.690000000
C    -4.995000000    -2.531000000     3.114000000
H    -6.075000000    -2.496000000     2.995000000
C    -4.323000000    -1.400000000     3.568000000
O    -5.118000000    -0.278000000     3.754000000
C    -4.670000000     0.757000000     4.603000000
C    -4.616000000     2.074000000     4.065000000
H    -5.104000000     2.149000000     3.097000000
C    -4.156000000     0.553000000     5.904000000
H    -4.299000000    -0.401000000     6.405000000
C    -3.617000000     1.623000000     6.543000000
H    -3.224000000     1.451000000     7.542000000
C    -3.498000000     2.843000000     6.025000000
H    -2.996000000     3.572000000     6.656000000
C    -4.058000000     3.185000000     4.762000000
O    -3.818000000     4.429000000     4.278000000
C    -2.682000000     4.699000000     3.524000000
C    -2.635000000     5.931000000     2.797000000
H    -3.527000000     6.551000000     2.765000000
C    -1.532000000     6.216000000     2.017000000
O    -1.497000000     7.322000000     1.199000000
C    -0.776000000     7.306000000    -0.030000000
C    -1.050000000     6.325000000    -1.011000000
H    -1.801000000     5.566000000    -0.807000000
C     0.071000000     8.354000000    -0.265000000
H     0.139000000     9.071000000     0.549000000
C     0.691000000     8.418000000    -1.523000000
H     1.286000000     9.302000000    -1.737000000
C     0.419000000     7.464000000    -2.494000000
H     0.904000000     7.632000000    -3.452000000
C    -0.418000000     6.346000000    -2.206000000
O    -0.858000000     5.497000000    -3.240000000
C    -0.291000000     4.341000000    -3.770000000
C    -0.879000000     3.657000000    -4.834000000
H    -1.800000000     4.042000000    -5.265000000
C    -0.244000000     2.486000000    -5.322000000
O    -0.787000000     1.769000000    -6.439000000
C    -0.532000000     0.458000000    -6.827000000
C     0.510000000     0.281000000    -7.773000000
H     1.066000000     1.103000000    -8.218000000
C     0.727000000    -1.010000000    -8.272000000
H     1.434000000    -1.193000000    -9.077000000
C     0.013000000    -2.125000000    -7.778000000
H     0.178000000    -3.116000000    -8.194000000
C    -0.894000000    -1.908000000    -6.699000000
C    -1.257000000    -0.603000000    -6.389000000
H    -2.127000000    -0.459000000    -5.753000000
C    -1.386000000     1.060000000    -1.744000000
H    -1.422000000     1.953000000    -2.363000000
C    -0.523000000     0.978000000    -0.657000000
H     0.217000000     1.747000000    -0.450000000
C    -0.598000000    -0.172000000     0.144000000
H    -0.004000000    -0.171000000     1.142000000
C    -1.516000000    -1.197000000    -0.150000000
H    -1.454000000    -1.972000000     0.609000000
C    -2.446000000    -1.079000000    -1.219000000
H    -3.162000000    -1.860000000    -1.460000000
C    -2.409000000     0.097000000    -1.978000000
C    -3.413000000     0.279000000    -3.166000000
O    -4.105000000    -0.649000000    -3.500000000
O    -3.597000000     1.336000000    -3.742000000
O    -6.226000000     1.383000000    -2.890000000
H    -6.830000000     1.299000000    -3.628000000
H    -5.357000000     1.275000000    -3.278000000
O    -8.504000000    -1.292000000    -6.064000000
H    -7.979000000    -0.656000000    -5.577000000
H    -9.404000000    -0.978000000    -5.974000000
O    -8.155000000     2.077000000     0.032000000
H    -8.200000000     1.449000000     0.753000000
H    -7.462000000     1.742000000    -0.535000000
O    -5.865000000     0.131000000    -0.340000000
H    -5.126000000     0.442000000     0.182000000
H    -5.689000000     0.457000000    -1.223000000
O    -8.795000000    -1.284000000    -0.431000000
H    -9.643000000    -1.099000000    -0.029000000
H    -8.221000000    -0.588000000    -0.109000000
O    -7.620000000     1.815000000    -5.291000000
H    -7.834000000     2.419000000    -4.580000000
H    -8.326000000     1.934000000    -5.926000000
O    -4.132000000     1.351000000    -8.421000000
H    -4.911000000     0.957000000    -8.813000000
H    -3.444000000     1.220000000    -9.074000000
O    -3.468000000     5.792000000    -4.930000000
H    -3.140000000     5.487000000    -4.084000000
H    -4.298000000     5.329000000    -5.047000000
O    -7.411000000    -3.630000000    -0.471000000
H    -6.890000000    -3.425000000    -1.248000000
H    -7.821000000    -2.799000000    -0.232000000
O    -3.548000000     3.657000000    -2.516000000
H    -4.424000000     3.974000000    -2.735000000
H    -3.501000000     2.788000000    -2.915000000
O    -3.774000000    -1.915000000    -7.621000000
H    -4.424000000    -1.331000000    -7.230000000
H    -3.377000000    -2.366000000    -6.876000000
O    -6.121000000     4.608000000    -5.573000000
H    -5.584000000     3.819000000    -5.649000000
H    -6.234000000     4.731000000    -4.631000000
O    -3.313000000     1.588000000     0.944000000
H    -3.072000000     2.189000000     0.239000000
H    -2.868000000     0.769000000     0.724000000
O    -5.965000000    -3.047000000    -4.663000000
H    -5.811000000    -2.156000000    -4.978000000
H    -5.808000000    -2.998000000    -3.720000000
O    -6.042000000     5.196000000    -2.986000000
H    -6.769000000     4.957000000    -2.412000000
H    -5.712000000     6.019000000    -2.625000000
O    -3.867000000     2.750000000    -5.914000000
H    -3.941000000     2.127000000    -6.637000000
H    -3.648000000     2.210000000    -5.154000000
O    -4.302000000     5.330000000    -0.354000000
H    -3.600000000     4.686000000    -0.442000000
H    -4.492000000     5.603000000    -1.251000000
O    -5.695000000    -2.178000000    -2.050000000
H    -5.154000000    -1.769000000    -2.726000000
H    -5.809000000    -1.496000000    -1.389000000
O    -5.418000000    -0.329000000    -5.738000000
H    -5.709000000     0.561000000    -5.937000000
H    -4.834000000    -0.227000000    -4.986000000
