215
-1469.40837
C    -2.687000000    -1.697000000     3.466000000
H    -2.158000000    -0.912000000     4.001000000
C    -1.915000000    -2.718000000     2.883000000
C    -2.546000000    -3.612000000     2.048000000
H    -1.987000000    -4.336000000     1.461000000
C    -0.429000000    -2.584000000     3.097000000
O    -0.016000000    -1.821000000     4.293000000
H    -0.190000000    -1.965000000     2.220000000
O     0.268000000    -3.895000000     3.122000000
C     1.390000000    -3.904000000     2.227000000
C     1.219000000    -4.506000000     0.959000000
H     0.235000000    -4.915000000     0.745000000
C     2.164000000    -4.317000000    -0.023000000
O     1.923000000    -4.716000000    -1.294000000
C     3.319000000    -3.619000000     0.273000000
C     4.377000000    -3.375000000    -0.796000000
H     5.396000000    -3.249000000    -0.425000000
C     4.098000000    -2.106000000    -1.573000000
C     4.736000000    -0.919000000    -1.137000000
H     5.480000000    -0.986000000    -0.347000000
H     4.346000000    -4.224000000    -1.482000000
C     3.592000000    -3.248000000     1.573000000
H     4.538000000    -2.780000000     1.836000000
C     2.591000000    -3.335000000     2.557000000
C     2.706000000    -2.689000000     3.896000000
H     3.734000000    -2.689000000     4.266000000
H     2.239000000    -3.279000000     4.688000000
C     2.297000000    -1.220000000     3.924000000
C     3.254000000    -0.171000000     3.838000000
H     4.252000000    -0.427000000     3.489000000
C     0.938000000    -0.874000000     4.115000000
C     0.616000000     0.402000000     4.366000000
H    -0.434000000     0.669000000     4.450000000
C     1.505000000     1.422000000     4.116000000
O     1.080000000     2.703000000     4.128000000
C     0.835000000     3.305000000     2.898000000
C    -0.534000000     4.027000000     2.919000000
C    -0.887000000     4.791000000     1.810000000
H    -0.142000000     5.051000000     1.062000000
C    -1.511000000     3.711000000     3.880000000
H    -1.292000000     2.973000000     4.647000000
O     1.889000000     4.189000000     2.617000000
H     0.795000000     2.502000000     2.147000000
C     2.860000000     1.184000000     3.871000000
C     3.808000000     2.276000000     3.518000000
H     4.773000000     1.791000000     3.683000000
H     3.676000000     3.098000000     4.225000000
C     3.745000000     2.689000000     2.061000000
C     4.530000000     2.047000000     1.089000000
H     5.212000000     1.239000000     1.345000000
C     2.795000000     3.581000000     1.713000000
C     2.586000000     3.911000000     0.316000000
H     1.759000000     4.552000000     0.021000000
C     3.362000000     3.292000000    -0.653000000
O     3.032000000     3.417000000    -2.045000000
C     2.297000000     2.375000000    -2.652000000
C     1.128000000     2.945000000    -3.428000000
C     0.647000000     4.307000000    -3.376000000
H     1.252000000     5.060000000    -2.879000000
C     0.364000000     2.067000000    -4.207000000
H     0.596000000     1.007000000    -4.255000000
O     3.232000000     1.567000000    -3.381000000
H     1.898000000     1.764000000    -1.830000000
C     4.339000000     2.361000000    -0.258000000
C     5.167000000     1.511000000    -1.267000000
H     6.135000000     1.148000000    -0.915000000
H     5.384000000     2.035000000    -2.200000000
C     4.423000000     0.300000000    -1.782000000
C     3.492000000     0.382000000    -2.808000000
C     2.893000000    -0.822000000    -3.184000000
H     2.173000000    -0.814000000    -3.999000000
C     3.204000000    -2.049000000    -2.617000000
O     2.515000000    -3.142000000    -3.034000000
C     1.448000000    -3.706000000    -2.201000000
H     0.996000000    -2.908000000    -1.593000000
C     0.288000000    -4.111000000    -3.029000000
C    -0.571000000    -5.064000000    -2.591000000
H    -0.376000000    -5.643000000    -1.692000000
C     0.005000000    -3.436000000    -4.221000000
H     0.692000000    -2.664000000    -4.558000000
C    -1.225000000    -3.748000000    -4.952000000
O    -1.662000000    -3.021000000    -6.030000000
C    -2.053000000    -4.713000000    -4.442000000
H    -3.032000000    -4.793000000    -4.908000000
C    -1.723000000    -5.426000000    -3.321000000
O    -2.593000000    -6.370000000    -2.840000000
C    -3.075000000    -6.453000000    -1.566000000
C    -3.521000000    -5.289000000    -0.867000000
H    -3.296000000    -4.337000000    -1.340000000
C    -3.214000000    -7.665000000    -0.937000000
H    -3.019000000    -8.585000000    -1.481000000
C    -3.658000000    -7.770000000     0.344000000
H    -3.820000000    -8.748000000     0.790000000
C    -3.986000000    -6.616000000     1.071000000
H    -4.403000000    -6.693000000     2.072000000
C    -4.068000000    -5.418000000     0.371000000
O    -4.615000000    -4.302000000     0.974000000
C    -3.917000000    -3.569000000     1.895000000
C    -4.707000000    -2.675000000     2.620000000
H    -5.784000000    -2.550000000     2.544000000
C    -4.084000000    -1.672000000     3.315000000
O    -4.901000000    -0.846000000     4.081000000
C    -4.374000000     0.136000000     4.837000000
C    -4.359000000     1.436000000     4.359000000
H    -4.788000000     1.801000000     3.430000000
C    -3.812000000    -0.218000000     6.050000000
H    -3.726000000    -1.248000000     6.386000000
C    -3.197000000     0.807000000     6.760000000
H    -2.773000000     0.629000000     7.744000000
C    -3.140000000     2.146000000     6.290000000
H    -2.762000000     2.915000000     6.958000000
C    -3.734000000     2.430000000     5.069000000
O    -3.772000000     3.709000000     4.698000000
C    -2.774000000     4.198000000     3.798000000
C    -3.164000000     5.008000000     2.683000000
H    -4.191000000     5.360000000     2.629000000
C    -2.196000000     5.310000000     1.717000000
O    -2.604000000     6.194000000     0.740000000
C    -1.743000000     6.712000000    -0.174000000
C    -1.705000000     6.038000000    -1.377000000
H    -2.132000000     5.054000000    -1.554000000
C    -1.096000000     7.989000000     0.013000000
H    -1.144000000     8.585000000     0.921000000
C    -0.312000000     8.481000000    -1.022000000
H     0.200000000     9.433000000    -0.912000000
C    -0.344000000     7.853000000    -2.286000000
H     0.085000000     8.266000000    -3.196000000
C    -0.975000000     6.590000000    -2.440000000
O    -1.065000000     5.983000000    -3.619000000
C    -0.591000000     4.733000000    -3.873000000
C    -1.191000000     3.902000000    -4.777000000
H    -2.135000000     4.167000000    -5.247000000
C    -0.757000000     2.581000000    -4.872000000
O    -1.601000000     1.674000000    -5.482000000
C    -1.188000000     0.506000000    -6.103000000
C    -0.378000000     0.653000000    -7.209000000
H    -0.113000000     1.657000000    -7.529000000
C     0.014000000    -0.447000000    -7.903000000
H     0.615000000    -0.286000000    -8.795000000
C    -0.370000000    -1.738000000    -7.455000000
H    -0.256000000    -2.675000000    -7.994000000
C    -1.137000000    -1.825000000    -6.341000000
C    -1.620000000    -0.715000000    -5.649000000
H    -2.204000000    -0.798000000    -4.736000000
C    -1.222000000     1.368000000    -0.621000000
H    -1.878000000     2.199000000    -0.870000000
C     0.040000000     1.629000000    -0.104000000
H     0.370000000     2.642000000     0.112000000
C     0.859000000     0.607000000     0.330000000
H     1.834000000     0.861000000     0.825000000
C     0.417000000    -0.678000000     0.241000000
H     1.072000000    -1.476000000     0.583000000
C    -0.786000000    -0.994000000    -0.279000000
H    -1.109000000    -2.023000000    -0.415000000
C    -1.618000000     0.052000000    -0.856000000
C    -3.017000000    -0.242000000    -1.428000000
O    -3.392000000    -1.348000000    -1.448000000
O    -3.770000000     0.719000000    -1.710000000
O    -5.690000000    -0.081000000    -3.243000000
H    -6.316000000     0.306000000    -2.631000000
H    -4.861000000    -0.089000000    -2.764000000
O    -3.543000000    -0.398000000    -8.492000000
H    -3.570000000    -0.589000000    -7.554000000
H    -4.432000000    -0.112000000    -8.703000000
O    -8.779000000     1.779000000    -4.435000000
H    -9.485000000     1.839000000    -3.790000000
H    -8.153000000     2.451000000    -4.166000000
O    -7.476000000     0.120000000     0.898000000
H    -7.643000000     0.746000000     0.193000000
H    -6.874000000    -0.518000000     0.515000000
O    -7.836000000    -5.096000000    -0.556000000
H    -7.278000000    -5.106000000    -1.333000000
H    -8.239000000    -5.965000000    -0.540000000
O    -7.579000000     1.375000000    -1.558000000
H    -8.328000000     0.846000000    -1.836000000
H    -7.466000000     2.016000000    -2.260000000
O    -8.331000000    -2.818000000     0.762000000
H    -7.559000000    -2.255000000     0.819000000
H    -8.078000000    -3.511000000     0.152000000
O    -4.234000000     2.176000000    -6.245000000
H    -4.577000000     1.288000000    -6.138000000
H    -3.362000000     2.053000000    -6.619000000
O    -8.452000000     0.623000000     3.280000000
H    -8.080000000     0.486000000     2.409000000
H    -9.129000000     1.287000000     3.150000000
O    -7.310000000    -2.771000000    -2.579000000
H    -7.940000000    -3.489000000    -2.636000000
H    -7.635000000    -2.117000000    -3.198000000
O    -4.505000000     5.506000000    -2.879000000
H    -4.357000000     4.606000000    -3.172000000
H    -4.698000000     5.425000000    -1.945000000
O    -3.893000000     2.924000000    -3.554000000
H    -3.385000000     2.737000000    -4.344000000
H    -3.689000000     2.201000000    -2.961000000
O    -4.759000000    -3.713000000    -6.400000000
H    -5.533000000    -3.417000000    -5.922000000
H    -4.021000000    -3.422000000    -5.864000000
O    -4.631000000     1.955000000     0.327000000
H    -4.250000000     1.802000000    -0.537000000
H    -5.177000000     1.185000000     0.488000000
O    -4.323000000    -2.815000000    -3.429000000
H    -3.937000000    -2.251000000    -2.759000000
H    -5.263000000    -2.791000000    -3.250000000
O    -6.539000000     3.187000000    -3.319000000
H    -5.603000000     2.988000000    -3.346000000
H    -6.625000000     4.004000000    -3.811000000
O    -4.982000000    -0.518000000    -5.831000000
H    -5.734000000    -1.067000000    -6.053000000
H    -5.141000000    -0.251000000    -4.925000000
O    -5.261000000     4.667000000     0.165000000
H    -4.916000000     3.776000000     0.113000000
H    -5.552000000     4.759000000     1.072000000
O    -5.733000000    -1.882000000    -0.448000000
H    -6.149000000    -2.440000000    -1.106000000
H    -4.843000000    -1.750000000    -0.773000000
