215
-1444.60625
C    -3.637000000    -1.732000000     3.294000000
H    -3.267000000    -1.456000000     4.279000000
C    -2.789000000    -2.322000000     2.359000000
C    -3.259000000    -2.592000000     1.133000000
H    -2.543000000    -2.781000000     0.337000000
C    -1.339000000    -2.619000000     2.642000000
O    -1.063000000    -2.636000000     4.065000000
H    -0.712000000    -1.879000000     2.124000000
O    -0.961000000    -3.950000000     2.236000000
C     0.288000000    -4.176000000     1.657000000
C     0.269000000    -4.494000000     0.309000000
H    -0.697000000    -4.738000000    -0.126000000
C     1.377000000    -4.372000000    -0.474000000
O     1.263000000    -4.543000000    -1.809000000
C     2.653000000    -4.227000000     0.087000000
C     3.881000000    -4.112000000    -0.761000000
H     4.750000000    -4.559000000    -0.274000000
C     4.113000000    -2.722000000    -1.181000000
C     4.745000000    -1.801000000    -0.347000000
H     5.055000000    -2.120000000     0.645000000
H     3.762000000    -4.745000000    -1.643000000
C     2.717000000    -4.072000000     1.515000000
H     3.707000000    -4.002000000     1.958000000
C     1.547000000    -3.973000000     2.306000000
C     1.691000000    -3.709000000     3.810000000
H     2.749000000    -3.821000000     4.058000000
H     1.107000000    -4.429000000     4.388000000
C     1.293000000    -2.258000000     4.238000000
C     2.284000000    -1.309000000     4.527000000
H     3.285000000    -1.630000000     4.249000000
C    -0.042000000    -1.803000000     4.393000000
C    -0.363000000    -0.418000000     4.523000000
H    -1.397000000    -0.089000000     4.453000000
C     0.651000000     0.460000000     4.704000000
O     0.248000000     1.749000000     4.695000000
C     0.341000000     2.409000000     3.376000000
C    -0.934000000     3.187000000     3.121000000
C    -1.090000000     3.992000000     1.982000000
H    -0.155000000     4.147000000     1.450000000
C    -2.105000000     3.143000000     3.877000000
H    -2.137000000     2.592000000     4.813000000
O     1.480000000     3.205000000     3.322000000
H     0.374000000     1.659000000     2.573000000
C     1.972000000     0.062000000     4.637000000
C     3.078000000     1.117000000     4.675000000
H     3.982000000     0.672000000     5.096000000
H     2.885000000     1.986000000     5.307000000
C     3.300000000     1.553000000     3.255000000
C     4.352000000     1.037000000     2.516000000
H     4.867000000     0.175000000     2.932000000
C     2.589000000     2.619000000     2.731000000
C     2.893000000     3.095000000     1.462000000
H     2.375000000     3.955000000     1.047000000
C     3.776000000     2.473000000     0.643000000
O     4.089000000     2.897000000    -0.624000000
C     3.269000000     2.211000000    -1.602000000
C     2.664000000     3.066000000    -2.654000000
C     2.374000000     4.389000000    -2.391000000
H     2.608000000     4.783000000    -1.405000000
C     2.392000000     2.645000000    -3.947000000
H     2.629000000     1.596000000    -4.103000000
O     4.148000000     1.292000000    -2.222000000
H     2.484000000     1.694000000    -1.030000000
C     4.436000000     1.319000000     1.142000000
C     5.428000000     0.535000000     0.259000000
H     6.083000000     0.013000000     0.960000000
H     6.103000000     1.218000000    -0.263000000
C     4.719000000    -0.408000000    -0.685000000
C     4.059000000    -0.026000000    -1.841000000
C     3.488000000    -0.980000000    -2.700000000
H     3.087000000    -0.785000000    -3.692000000
C     3.434000000    -2.312000000    -2.329000000
O     2.625000000    -3.116000000    -3.086000000
C     1.292000000    -3.387000000    -2.709000000
H     0.963000000    -2.559000000    -2.064000000
C     0.233000000    -3.463000000    -3.873000000
C    -1.007000000    -4.050000000    -3.669000000
H    -1.048000000    -4.587000000    -2.725000000
C     0.358000000    -2.558000000    -4.975000000
H     1.266000000    -1.967000000    -5.065000000
C    -0.689000000    -2.421000000    -5.947000000
O    -0.589000000    -1.480000000    -6.941000000
C    -1.919000000    -3.002000000    -5.693000000
H    -2.685000000    -2.927000000    -6.461000000
C    -2.058000000    -3.829000000    -4.556000000
O    -3.164000000    -4.622000000    -4.412000000
C    -3.732000000    -4.825000000    -3.230000000
C    -4.198000000    -3.740000000    -2.477000000
H    -4.163000000    -2.726000000    -2.867000000
C    -3.808000000    -6.119000000    -2.731000000
H    -3.333000000    -6.937000000    -3.267000000
C    -4.298000000    -6.358000000    -1.445000000
H    -4.281000000    -7.389000000    -1.102000000
C    -4.733000000    -5.244000000    -0.680000000
H    -5.118000000    -5.262000000     0.336000000
C    -4.706000000    -3.959000000    -1.196000000
O    -5.088000000    -2.879000000    -0.389000000
C    -4.614000000    -2.415000000     0.815000000
C    -5.468000000    -1.933000000     1.736000000
H    -6.513000000    -1.978000000     1.437000000
C    -4.992000000    -1.502000000     2.970000000
O    -5.884000000    -1.036000000     3.854000000
C    -5.553000000     0.087000000     4.634000000
C    -5.050000000     1.237000000     4.038000000
H    -4.943000000     1.248000000     2.956000000
C    -5.741000000     0.043000000     5.980000000
H    -6.166000000    -0.914000000     6.273000000
C    -5.617000000     1.216000000     6.735000000
H    -5.756000000     1.240000000     7.813000000
C    -5.172000000     2.387000000     6.096000000
H    -5.052000000     3.219000000     6.784000000
C    -4.818000000     2.414000000     4.753000000
O    -4.395000000     3.587000000     4.207000000
C    -3.263000000     3.726000000     3.459000000
C    -3.398000000     4.385000000     2.224000000
H    -4.376000000     4.768000000     1.944000000
C    -2.236000000     4.621000000     1.563000000
O    -2.272000000     5.289000000     0.334000000
C    -1.152000000     6.092000000    -0.037000000
C    -0.418000000     5.764000000    -1.200000000
H    -0.610000000     4.751000000    -1.545000000
C    -0.843000000     7.226000000     0.662000000
H    -1.329000000     7.561000000     1.575000000
C     0.231000000     8.036000000     0.255000000
H     0.556000000     8.837000000     0.914000000
C     0.931000000     7.783000000    -0.979000000
H     1.758000000     8.356000000    -1.392000000
C     0.661000000     6.592000000    -1.622000000
O     1.186000000     6.439000000    -2.859000000
C     1.686000000     5.188000000    -3.276000000
C     1.225000000     4.644000000    -4.477000000
H     0.611000000     5.257000000    -5.132000000
C     1.658000000     3.384000000    -4.829000000
O     1.384000000     2.952000000    -6.158000000
C     1.385000000     1.625000000    -6.548000000
C     2.608000000     1.158000000    -7.037000000
H     3.439000000     1.855000000    -7.113000000
C     2.657000000    -0.118000000    -7.602000000
H     3.631000000    -0.479000000    -7.924000000
C     1.532000000    -0.929000000    -7.624000000
H     1.662000000    -1.979000000    -7.874000000
C     0.341000000    -0.538000000    -7.101000000
C     0.265000000     0.779000000    -6.488000000
H    -0.601000000     1.193000000    -5.978000000
C    -0.845000000     1.640000000    -2.008000000
H    -0.911000000     2.546000000    -2.604000000
C    -0.086000000     1.637000000    -0.855000000
H     0.336000000     2.597000000    -0.569000000
C     0.190000000     0.478000000    -0.126000000
H     0.718000000     0.561000000     0.806000000
C    -0.335000000    -0.670000000    -0.526000000
H    -0.148000000    -1.610000000    -0.014000000
C    -1.198000000    -0.745000000    -1.683000000
H    -1.590000000    -1.719000000    -1.964000000
C    -1.444000000     0.416000000    -2.409000000
C    -2.337000000     0.449000000    -3.629000000
O    -3.045000000    -0.452000000    -3.966000000
O    -2.543000000     1.462000000    -4.214000000
O    -4.987000000     2.520000000    -0.154000000
H    -4.837000000     1.663000000    -0.553000000
H    -4.461000000     2.507000000     0.646000000
O    -1.639000000     3.839000000    -7.150000000
H    -1.163000000     3.823000000    -7.980000000
H    -1.978000000     2.949000000    -7.051000000
O    -6.110000000     1.310000000    -6.340000000
H    -5.686000000     0.861000000    -5.608000000
H    -5.437000000     1.348000000    -7.019000000
O    -5.031000000    -3.536000000    -7.008000000
H    -5.145000000    -3.059000000    -6.186000000
H    -5.678000000    -3.152000000    -7.600000000
O    -7.327000000    -1.170000000    -2.489000000
H    -7.671000000    -0.302000000    -2.281000000
H    -8.050000000    -1.767000000    -2.298000000
O    -4.772000000    -1.214000000    -5.782000000
H    -4.010000000    -1.149000000    -5.206000000
H    -4.465000000    -0.877000000    -6.624000000
O    -3.882000000     5.740000000    -3.806000000
H    -2.975000000     5.459000000    -3.930000000
H    -4.391000000     4.931000000    -3.845000000
O    -1.384000000     7.425000000    -4.432000000
H    -1.194000000     7.284000000    -5.359000000
H    -1.054000000     6.639000000    -3.997000000
O    -2.938000000     0.581000000     1.029000000
H    -3.210000000     0.168000000     0.211000000
H    -2.123000000     1.033000000     0.810000000
O    -4.691000000     4.202000000    -6.608000000
H    -3.888000000     3.681000000    -6.603000000
H    -5.164000000     3.920000000    -5.825000000
O    -3.352000000    -0.649000000    -8.090000000
H    -3.979000000    -0.646000000    -8.813000000
H    -2.496000000    -0.699000000    -8.516000000
O    -1.478000000     0.194000000    -9.954000000
H    -1.139000000    -0.660000000    -9.687000000
H    -0.697000000     0.723000000   -10.113000000
O    -1.776000000     4.321000000    -4.289000000
H    -2.056000000     3.409000000    -4.223000000
H    -1.474000000     4.414000000    -5.193000000
O    -4.617000000     6.465000000    -1.094000000
H    -4.320000000     5.791000000    -0.483000000
H    -4.147000000     6.277000000    -1.906000000
O    -7.404000000    -1.919000000    -5.023000000
H    -6.557000000    -1.888000000    -5.466000000
H    -7.266000000    -1.437000000    -4.207000000
O    -4.582000000     3.113000000    -3.540000000
H    -5.085000000     2.557000000    -2.945000000
H    -3.915000000     2.532000000    -3.906000000
O    -4.924000000     2.409000000    -9.186000000
H    -5.484000000     3.110000000    -8.855000000
H    -4.532000000     2.024000000    -8.402000000
O    -4.976000000     0.214000000    -2.173000000
H    -4.319000000    -0.065000000    -2.810000000
H    -5.701000000    -0.399000000    -2.293000000
O    -3.072000000     1.851000000    -6.741000000
H    -2.938000000     1.760000000    -5.798000000
H    -2.918000000     0.973000000    -7.091000000
