215
-1450.35285
C    -3.872000000    -1.451000000     3.067000000
H    -3.301000000    -0.806000000     3.731000000
C    -3.203000000    -2.499000000     2.501000000
C    -3.889000000    -3.381000000     1.735000000
H    -3.390000000    -4.229000000     1.274000000
C    -1.697000000    -2.747000000     2.725000000
O    -1.295000000    -2.223000000     4.039000000
H    -1.135000000    -2.197000000     1.956000000
O    -1.265000000    -4.092000000     2.566000000
C    -0.092000000    -4.302000000     1.919000000
C    -0.174000000    -4.461000000     0.522000000
H    -1.107000000    -4.709000000     0.022000000
C     0.982000000    -4.482000000    -0.199000000
O     0.926000000    -4.690000000    -1.557000000
C     2.233000000    -4.388000000     0.437000000
C     3.524000000    -4.411000000    -0.450000000
H     4.418000000    -4.734000000     0.089000000
C     3.734000000    -3.017000000    -0.990000000
C     4.553000000    -2.072000000    -0.243000000
H     4.841000000    -2.325000000     0.774000000
H     3.384000000    -5.140000000    -1.250000000
C     2.327000000    -4.186000000     1.775000000
H     3.302000000    -3.930000000     2.183000000
C     1.173000000    -4.078000000     2.539000000
C     1.310000000    -3.630000000     3.937000000
H     2.268000000    -3.797000000     4.434000000
H     0.562000000    -4.246000000     4.442000000
C     1.148000000    -2.086000000     4.114000000
C     2.325000000    -1.238000000     4.160000000
H     3.325000000    -1.652000000     4.062000000
C    -0.133000000    -1.487000000     4.115000000
C    -0.238000000    -0.132000000     4.185000000
H    -1.215000000     0.344000000     4.152000000
C     0.803000000     0.710000000     4.259000000
O     0.662000000     2.055000000     4.330000000
C     0.759000000     2.739000000     3.086000000
C    -0.345000000     3.707000000     3.005000000
C    -0.305000000     4.697000000     2.057000000
H     0.658000000     4.937000000     1.614000000
C    -1.595000000     3.440000000     3.552000000
H    -1.675000000     2.621000000     4.262000000
O     2.042000000     3.302000000     2.990000000
H     0.513000000     2.079000000     2.242000000
C     2.087000000     0.122000000     4.248000000
C     3.294000000     1.051000000     4.308000000
H     4.152000000     0.483000000     4.676000000
H     3.025000000     1.903000000     4.935000000
C     3.682000000     1.485000000     2.966000000
C     4.495000000     0.661000000     2.171000000
H     4.912000000    -0.294000000     2.480000000
C     3.069000000     2.645000000     2.362000000
C     3.328000000     3.073000000     1.070000000
H     2.808000000     3.894000000     0.584000000
C     4.280000000     2.323000000     0.329000000
O     4.333000000     2.611000000    -1.016000000
C     3.499000000     1.847000000    -1.839000000
C     2.602000000     2.640000000    -2.810000000
C     2.345000000     4.006000000    -2.485000000
H     2.837000000     4.473000000    -1.636000000
C     1.904000000     2.053000000    -3.908000000
H     2.055000000     0.997000000    -4.116000000
O     4.252000000     0.787000000    -2.526000000
H     2.787000000     1.443000000    -1.105000000
C     4.788000000     1.066000000     0.861000000
C     5.623000000     0.134000000     0.021000000
H     6.315000000    -0.320000000     0.733000000
H     6.233000000     0.664000000    -0.714000000
C     4.811000000    -0.826000000    -0.782000000
C     4.214000000    -0.494000000    -2.036000000
C     3.444000000    -1.384000000    -2.744000000
H     2.917000000    -1.052000000    -3.636000000
C     3.155000000    -2.612000000    -2.222000000
O     2.325000000    -3.406000000    -2.925000000
C     1.013000000    -3.546000000    -2.396000000
H     0.724000000    -2.656000000    -1.818000000
C    -0.094000000    -3.362000000    -3.450000000
C    -1.455000000    -3.720000000    -3.098000000
H    -1.704000000    -4.068000000    -2.099000000
C     0.218000000    -2.991000000    -4.768000000
H     1.256000000    -2.768000000    -5.000000000
C    -0.853000000    -2.657000000    -5.565000000
O    -0.528000000    -2.193000000    -6.814000000
C    -2.138000000    -2.914000000    -5.202000000
H    -2.928000000    -2.692000000    -5.915000000
C    -2.501000000    -3.483000000    -4.005000000
O    -3.838000000    -3.626000000    -3.675000000
C    -4.276000000    -4.462000000    -2.608000000
C    -4.974000000    -3.886000000    -1.554000000
H    -5.394000000    -2.884000000    -1.528000000
C    -3.923000000    -5.817000000    -2.608000000
H    -3.530000000    -6.302000000    -3.498000000
C    -4.181000000    -6.573000000    -1.448000000
H    -3.837000000    -7.594000000    -1.304000000
C    -4.973000000    -6.042000000    -0.384000000
H    -5.189000000    -6.620000000     0.510000000
C    -5.374000000    -4.699000000    -0.491000000
O    -5.938000000    -4.045000000     0.592000000
C    -5.252000000    -3.156000000     1.434000000
C    -5.896000000    -2.078000000     1.941000000
H    -6.929000000    -1.884000000     1.666000000
C    -5.227000000    -1.280000000     2.832000000
O    -5.950000000    -0.297000000     3.384000000
C    -5.404000000     0.659000000     4.271000000
C    -5.094000000     1.925000000     3.744000000
H    -5.472000000     2.164000000     2.754000000
C    -5.058000000     0.418000000     5.614000000
H    -5.257000000    -0.553000000     6.059000000
C    -4.230000000     1.254000000     6.315000000
H    -3.829000000     1.039000000     7.302000000
C    -3.876000000     2.436000000     5.691000000
H    -3.252000000     3.146000000     6.229000000
C    -4.282000000     2.795000000     4.440000000
O    -3.828000000     4.011000000     3.871000000
C    -2.641000000     4.220000000     3.271000000
C    -2.528000000     5.334000000     2.521000000
H    -3.291000000     6.107000000     2.486000000
C    -1.315000000     5.623000000     1.882000000
O    -1.328000000     6.683000000     1.049000000
C    -0.382000000     7.076000000     0.176000000
C    -0.052000000     6.225000000    -0.884000000
H    -0.519000000     5.249000000    -0.985000000
C     0.204000000     8.330000000     0.312000000
H    -0.035000000     8.937000000     1.182000000
C     1.236000000     8.780000000    -0.551000000
H     1.679000000     9.761000000    -0.395000000
C     1.579000000     7.964000000    -1.616000000
H     2.180000000     8.366000000    -2.427000000
C     0.871000000     6.699000000    -1.830000000
O     1.134000000     6.085000000    -3.073000000
C     1.437000000     4.757000000    -3.243000000
C     0.822000000     4.151000000    -4.346000000
H     0.207000000     4.728000000    -5.033000000
C     0.974000000     2.809000000    -4.664000000
O     0.151000000     2.305000000    -5.592000000
C     0.534000000     1.221000000    -6.281000000
C     1.655000000     1.287000000    -7.079000000
H     2.283000000     2.174000000    -7.105000000
C     2.147000000     0.081000000    -7.696000000
H     3.084000000     0.142000000    -8.243000000
C     1.409000000    -1.084000000    -7.564000000
H     1.755000000    -2.008000000    -8.021000000
C     0.137000000    -1.015000000    -6.975000000
C    -0.272000000     0.123000000    -6.315000000
H    -1.225000000     0.160000000    -5.794000000
C    -0.216000000     1.788000000    -0.225000000
H    -0.024000000     2.857000000    -0.205000000
C     0.607000000     0.759000000     0.274000000
H     1.532000000     1.013000000     0.785000000
C     0.263000000    -0.573000000     0.237000000
H     0.864000000    -1.343000000     0.774000000
C    -0.994000000    -0.895000000    -0.272000000
H    -1.290000000    -1.941000000    -0.278000000
C    -1.886000000     0.053000000    -0.811000000
H    -2.794000000    -0.426000000    -1.169000000
C    -1.428000000     1.375000000    -0.854000000
C    -2.337000000     2.345000000    -1.551000000
O    -3.441000000     1.918000000    -2.008000000
O    -2.005000000     3.480000000    -1.818000000
O    -6.095000000     3.652000000    -3.448000000
H    -6.071000000     3.617000000    -2.491000000
H    -5.195000000     3.469000000    -3.717000000
O    -3.169000000    -0.672000000    -8.223000000
H    -2.793000000     0.075000000    -7.756000000
H    -3.876000000    -0.978000000    -7.656000000
O    -5.245000000    -1.250000000    -6.304000000
H    -5.339000000    -0.320000000    -6.506000000
H    -5.157000000    -1.281000000    -5.351000000
O    -5.582000000     8.487000000    -3.247000000
H    -4.655000000     8.289000000    -3.380000000
H    -5.860000000     7.882000000    -2.560000000
O    -5.905000000     7.025000000    -1.004000000
H    -6.249000000     6.587000000    -0.225000000
H    -4.970000000     6.821000000    -1.000000000
O    -3.751000000     1.669000000    -6.717000000
H    -4.630000000     2.036000000    -6.819000000
H    -3.422000000     2.059000000    -5.908000000
O    -8.002000000     5.376000000    -4.356000000
H    -8.415000000     5.706000000    -3.558000000
H    -7.420000000     4.679000000    -4.055000000
O    -7.826000000    -0.491000000    -1.576000000
H    -7.908000000    -1.333000000    -1.128000000
H    -6.896000000    -0.274000000    -1.511000000
O    -5.189000000     3.748000000    -0.795000000
H    -4.745000000     4.583000000    -0.648000000
H    -4.488000000     3.145000000    -1.044000000
O    -2.774000000     3.055000000    -4.482000000
H    -1.887000000     3.024000000    -4.840000000
H    -2.651000000     3.015000000    -3.534000000
O    -1.697000000     5.989000000    -3.160000000
H    -1.955000000     5.072000000    -3.063000000
H    -0.746000000     5.960000000    -3.265000000
O    -3.241000000     3.497000000    -8.589000000
H    -2.619000000     3.103000000    -9.202000000
H    -3.478000000     2.784000000    -7.997000000
O    -3.316000000     5.930000000    -0.775000000
H    -2.843000000     5.518000000    -1.498000000
H    -2.629000000     6.270000000    -0.201000000
O    -2.069000000     5.442000000    -6.890000000
H    -2.895000000     5.018000000    -7.123000000
H    -1.394000000     4.836000000    -7.194000000
O    -3.161000000     7.755000000    -4.960000000
H    -2.609000000     8.517000000    -4.780000000
H    -2.597000000     7.003000000    -4.781000000
O    -5.023000000     0.145000000    -1.181000000
H    -4.703000000    -0.156000000    -0.331000000
H    -4.406000000     0.830000000    -1.439000000
O    -4.403000000    -0.162000000    -3.830000000
H    -3.793000000     0.574000000    -3.772000000
H    -4.854000000    -0.166000000    -2.986000000
O    -2.242000000     8.666000000    -2.275000000
H    -2.522000000     8.613000000    -1.362000000
H    -2.182000000     7.755000000    -2.561000000
O    -7.998000000     2.990000000    -0.311000000
H    -8.124000000     2.996000000     0.638000000
H    -7.084000000     3.250000000    -0.433000000
