215
-1442.51032
C    -3.290000000    -2.288000000     3.765000000
H    -2.773000000    -2.003000000     4.678000000
C    -2.509000000    -2.797000000     2.705000000
C    -3.095000000    -3.193000000     1.444000000
H    -2.476000000    -3.456000000     0.590000000
C    -0.977000000    -2.803000000     2.763000000
O    -0.563000000    -2.388000000     4.052000000
H    -0.516000000    -2.043000000     2.115000000
O    -0.413000000    -4.077000000     2.514000000
C     0.720000000    -4.203000000     1.689000000
C     0.569000000    -4.534000000     0.375000000
H    -0.435000000    -4.640000000    -0.029000000
C     1.678000000    -4.438000000    -0.537000000
O     1.392000000    -4.550000000    -1.875000000
C     2.960000000    -4.104000000    -0.054000000
C     4.226000000    -3.863000000    -0.936000000
H     5.216000000    -3.944000000    -0.482000000
C     4.233000000    -2.468000000    -1.572000000
C     4.897000000    -1.405000000    -0.918000000
H     5.444000000    -1.461000000     0.020000000
H     4.213000000    -4.680000000    -1.661000000
C     3.076000000    -3.799000000     1.320000000
H     4.027000000    -3.419000000     1.684000000
C     2.002000000    -3.859000000     2.220000000
C     2.141000000    -3.495000000     3.695000000
H     3.163000000    -3.707000000     4.017000000
H     1.497000000    -4.103000000     4.333000000
C     1.788000000    -2.029000000     3.991000000
C     2.797000000    -1.060000000     3.942000000
H     3.824000000    -1.378000000     3.782000000
C     0.496000000    -1.537000000     4.267000000
C     0.249000000    -0.202000000     4.496000000
H    -0.768000000     0.184000000     4.500000000
C     1.274000000     0.711000000     4.422000000
O     0.887000000     1.985000000     4.528000000
C     0.708000000     2.653000000     3.304000000
C    -0.504000000     3.533000000     3.296000000
C    -0.596000000     4.697000000     2.518000000
H     0.178000000     5.065000000     1.849000000
C    -1.675000000     3.073000000     3.861000000
H    -1.660000000     2.169000000     4.464000000
O     1.997000000     3.403000000     3.231000000
H     0.641000000     1.878000000     2.525000000
C     2.579000000     0.279000000     4.196000000
C     3.754000000     1.302000000     4.042000000
H     4.751000000     0.900000000     4.230000000
H     3.733000000     2.028000000     4.857000000
C     3.793000000     1.912000000     2.696000000
C     4.652000000     1.332000000     1.767000000
H     5.233000000     0.492000000     2.138000000
C     2.900000000     2.917000000     2.319000000
C     2.914000000     3.321000000     1.010000000
H     2.160000000     4.030000000     0.676000000
C     3.699000000     2.698000000     0.054000000
O     3.582000000     3.076000000    -1.279000000
C     2.764000000     2.200000000    -2.059000000
C     1.694000000     2.931000000    -2.786000000
C     1.265000000     4.256000000    -2.410000000
H     1.694000000     4.758000000    -1.547000000
C     1.055000000     2.296000000    -3.853000000
H     1.435000000     1.347000000    -4.222000000
O     3.644000000     1.421000000    -2.864000000
H     2.264000000     1.520000000    -1.353000000
C     4.680000000     1.732000000     0.428000000
C     5.487000000     1.031000000    -0.615000000
H     6.421000000     0.654000000    -0.193000000
H     5.849000000     1.802000000    -1.299000000
C     4.762000000    -0.074000000    -1.368000000
C     3.905000000     0.186000000    -2.447000000
C     3.311000000    -0.845000000    -3.172000000
H     2.692000000    -0.643000000    -4.043000000
C     3.462000000    -2.134000000    -2.731000000
O     2.610000000    -3.064000000    -3.388000000
C     1.259000000    -3.357000000    -2.768000000
H     0.959000000    -2.510000000    -2.132000000
C     0.143000000    -3.500000000    -3.772000000
C    -0.978000000    -4.298000000    -3.459000000
H    -1.088000000    -4.563000000    -2.410000000
C     0.178000000    -2.916000000    -5.008000000
H     1.032000000    -2.357000000    -5.381000000
C    -0.845000000    -2.998000000    -5.890000000
O    -0.856000000    -2.185000000    -7.066000000
C    -1.986000000    -3.647000000    -5.497000000
H    -2.806000000    -3.625000000    -6.210000000
C    -2.038000000    -4.346000000    -4.333000000
O    -3.226000000    -4.897000000    -3.969000000
C    -3.720000000    -5.100000000    -2.696000000
C    -4.016000000    -4.062000000    -1.847000000
H    -3.769000000    -3.047000000    -2.146000000
C    -4.209000000    -6.437000000    -2.380000000
H    -4.030000000    -7.298000000    -3.019000000
C    -5.041000000    -6.621000000    -1.265000000
H    -5.449000000    -7.624000000    -1.160000000
C    -5.279000000    -5.514000000    -0.381000000
H    -5.835000000    -5.618000000     0.547000000
C    -4.699000000    -4.275000000    -0.672000000
O    -5.010000000    -3.139000000     0.081000000
C    -4.480000000    -2.941000000     1.275000000
C    -5.225000000    -2.409000000     2.402000000
H    -6.263000000    -2.109000000     2.280000000
C    -4.659000000    -2.068000000     3.560000000
O    -5.458000000    -1.349000000     4.446000000
C    -4.998000000    -0.213000000     5.098000000
C    -4.576000000     0.876000000     4.324000000
H    -4.593000000     0.779000000     3.241000000
C    -4.988000000    -0.241000000     6.455000000
H    -5.472000000    -1.069000000     6.967000000
C    -4.653000000     0.989000000     7.080000000
H    -4.765000000     1.171000000     8.146000000
C    -4.203000000     2.061000000     6.338000000
H    -4.056000000     3.016000000     6.838000000
C    -4.275000000     2.054000000     4.926000000
O    -4.135000000     3.249000000     4.264000000
C    -2.934000000     3.708000000     3.723000000
C    -2.969000000     4.829000000     2.892000000
H    -3.922000000     5.341000000     2.779000000
C    -1.849000000     5.297000000     2.229000000
O    -2.020000000     6.320000000     1.371000000
C    -1.000000000     6.744000000     0.575000000
C    -0.965000000     6.267000000    -0.741000000
H    -1.663000000     5.506000000    -1.081000000
C    -0.031000000     7.687000000     0.973000000
H    -0.080000000     8.081000000     1.985000000
C     0.954000000     8.040000000     0.099000000
H     1.636000000     8.839000000     0.379000000
C     0.943000000     7.626000000    -1.242000000
H     1.693000000     7.899000000    -1.979000000
C    -0.027000000     6.697000000    -1.616000000
O    -0.037000000     6.174000000    -2.832000000
C     0.250000000     4.835000000    -3.101000000
C    -0.453000000     4.175000000    -4.047000000
H    -1.252000000     4.643000000    -4.616000000
C    -0.068000000     2.900000000    -4.493000000
O    -0.683000000     2.342000000    -5.606000000
C    -0.097000000     1.317000000    -6.239000000
C     1.123000000     1.444000000    -6.905000000
H     1.664000000     2.387000000    -6.881000000
C     1.504000000     0.478000000    -7.831000000
H     2.365000000     0.648000000    -8.474000000
C     0.865000000    -0.780000000    -7.922000000
H     1.328000000    -1.607000000    -8.454000000
C    -0.307000000    -0.898000000    -7.131000000
C    -0.826000000     0.161000000    -6.361000000
H    -1.830000000    -0.006000000    -5.979000000
C    -1.886000000     2.417000000    -1.051000000
H    -2.209000000     3.454000000    -1.017000000
C    -0.806000000     2.078000000    -0.193000000
H    -0.256000000     2.801000000     0.404000000
C    -0.554000000     0.720000000    -0.022000000
H     0.243000000     0.470000000     0.776000000
C    -1.097000000    -0.248000000    -0.890000000
H    -0.712000000    -1.262000000    -0.819000000
C    -2.043000000     0.159000000    -1.797000000
H    -2.430000000    -0.546000000    -2.528000000
C    -2.403000000     1.483000000    -1.916000000
C    -3.391000000     1.875000000    -2.986000000
O    -3.984000000     1.023000000    -3.617000000
O    -3.690000000     3.061000000    -3.198000000
O    -6.544000000     1.537000000    -3.346000000
H    -5.648000000     1.279000000    -3.559000000
H    -6.447000000     2.347000000    -2.845000000
O    -4.956000000    -2.893000000    -8.073000000
H    -4.649000000    -2.161000000    -7.537000000
H    -5.001000000    -3.632000000    -7.467000000
O    -8.232000000     4.933000000    -0.760000000
H    -7.614000000     4.223000000    -0.931000000
H    -8.408000000     5.310000000    -1.623000000
O    -3.741000000     8.258000000    -4.554000000
H    -3.451000000     8.496000000    -5.435000000
H    -3.354000000     7.397000000    -4.399000000
O    -4.186000000     5.985000000    -0.458000000
H    -3.348000000     6.173000000    -0.036000000
H    -4.783000000     6.648000000    -0.112000000
O    -4.022000000     3.067000000    -6.085000000
H    -3.814000000     2.355000000    -6.689000000
H    -3.902000000     2.686000000    -5.215000000
O    -5.665000000     3.676000000    -1.537000000
H    -5.346000000     4.351000000    -0.938000000
H    -4.917000000     3.487000000    -2.104000000
O    -3.342000000     5.745000000    -3.174000000
H    -4.011000000     6.062000000    -2.568000000
H    -3.427000000     4.792000000    -3.148000000
O    -7.601000000    -3.093000000    -3.907000000
H    -7.393000000    -2.175000000    -4.081000000
H    -7.637000000    -3.153000000    -2.953000000
O    -3.183000000     1.337000000    -8.208000000
H    -2.423000000     1.639000000    -8.706000000
H    -3.936000000     1.622000000    -8.726000000
O    -4.501000000     0.573000000     0.578000000
H    -3.570000000     0.351000000     0.591000000
H    -4.748000000     0.513000000    -0.345000000
O    -2.072000000     4.528000000    -7.800000000
H    -1.303000000     3.965000000    -7.715000000
H    -2.719000000     4.141000000    -7.210000000
O    -4.819000000     5.677000000    -6.883000000
H    -4.055000000     6.025000000    -6.422000000
H    -4.967000000     4.819000000    -6.487000000
O    -4.803000000    -0.498000000    -5.831000000
H    -4.309000000    -0.086000000    -5.122000000
H    -5.720000000    -0.354000000    -5.599000000
O    -7.217000000     1.370000000     1.277000000
H    -6.311000000     1.125000000     1.093000000
H    -7.203000000     2.326000000     1.322000000
O    -7.169000000     3.248000000    -5.798000000
H    -7.470000000     4.151000000    -5.692000000
H    -6.870000000     2.992000000    -4.925000000
O    -6.224000000    -0.947000000    -1.743000000
H    -6.581000000    -0.182000000    -2.195000000
H    -6.021000000    -1.566000000    -2.444000000
O    -8.546000000     1.256000000    -6.956000000
H    -9.089000000     1.271000000    -6.168000000
H    -7.929000000     1.978000000    -6.836000000
O    -7.624000000    -0.585000000    -4.593000000
H    -7.379000000     0.301000000    -4.325000000
H    -8.538000000    -0.673000000    -4.322000000
