215
-1461.42923
C    -4.548000000    -1.377000000     2.664000000
H    -4.310000000    -0.898000000     3.610000000
C    -3.787000000    -2.438000000     2.167000000
C    -4.113000000    -3.059000000     1.001000000
H    -3.384000000    -3.598000000     0.402000000
C    -2.338000000    -2.629000000     2.575000000
O    -2.172000000    -2.326000000     3.974000000
H    -1.803000000    -1.914000000     1.933000000
O    -1.838000000    -3.998000000     2.314000000
C    -0.578000000    -4.333000000     1.856000000
C    -0.410000000    -4.663000000     0.492000000
H    -1.249000000    -4.819000000    -0.182000000
C     0.890000000    -4.610000000    -0.065000000
O     0.956000000    -4.639000000    -1.413000000
C     1.997000000    -4.384000000     0.721000000
C     3.348000000    -4.410000000     0.042000000
H     4.141000000    -4.883000000     0.626000000
C     3.700000000    -3.009000000    -0.554000000
C     4.426000000    -2.162000000     0.292000000
H     4.532000000    -2.501000000     1.319000000
H     3.219000000    -5.057000000    -0.828000000
C     1.824000000    -4.095000000     2.083000000
H     2.573000000    -3.747000000     2.790000000
C     0.544000000    -4.141000000     2.690000000
C     0.357000000    -3.873000000     4.212000000
H     1.284000000    -4.182000000     4.699000000
H    -0.597000000    -4.274000000     4.562000000
C     0.270000000    -2.404000000     4.361000000
C     1.415000000    -1.571000000     4.427000000
H     2.420000000    -1.969000000     4.312000000
C    -0.955000000    -1.765000000     4.311000000
C    -1.077000000    -0.357000000     4.449000000
H    -2.026000000     0.165000000     4.358000000
C     0.026000000     0.408000000     4.666000000
O    -0.173000000     1.731000000     4.493000000
C     0.199000000     2.259000000     3.158000000
C    -0.831000000     3.262000000     2.710000000
C    -0.492000000     4.345000000     1.863000000
H     0.543000000     4.352000000     1.531000000
C    -2.127000000     3.146000000     3.131000000
H    -2.501000000     2.328000000     3.742000000
O     1.460000000     2.961000000     3.230000000
H     0.163000000     1.431000000     2.435000000
C     1.283000000    -0.185000000     4.604000000
C     2.517000000     0.720000000     4.740000000
H     3.289000000     0.137000000     5.246000000
H     2.203000000     1.503000000     5.433000000
C     3.139000000     1.230000000     3.413000000
C     4.104000000     0.490000000     2.788000000
H     4.451000000    -0.452000000     3.203000000
C     2.598000000     2.340000000     2.779000000
C     3.113000000     2.801000000     1.599000000
H     2.623000000     3.587000000     1.031000000
C     4.112000000     2.039000000     0.964000000
O     4.472000000     2.384000000    -0.317000000
C     3.870000000     1.709000000    -1.413000000
C     3.356000000     2.760000000    -2.487000000
C     2.937000000     4.024000000    -2.108000000
H     3.145000000     4.337000000    -1.088000000
C     3.155000000     2.364000000    -3.824000000
H     3.386000000     1.322000000    -4.028000000
O     4.826000000     0.762000000    -1.835000000
H     3.004000000     1.096000000    -1.125000000
C     4.608000000     0.889000000     1.528000000
C     5.608000000    -0.026000000     0.776000000
H     6.138000000    -0.689000000     1.463000000
H     6.428000000     0.524000000     0.310000000
C     4.869000000    -0.959000000    -0.151000000
C     4.601000000    -0.532000000    -1.461000000
C     3.860000000    -1.375000000    -2.306000000
H     3.722000000    -1.192000000    -3.369000000
C     3.476000000    -2.611000000    -1.866000000
O     2.572000000    -3.372000000    -2.622000000
C     1.151000000    -3.441000000    -2.120000000
H     0.966000000    -2.557000000    -1.492000000
C     0.215000000    -3.275000000    -3.287000000
C    -0.955000000    -4.054000000    -3.469000000
H    -1.055000000    -4.934000000    -2.838000000
C     0.430000000    -2.173000000    -4.081000000
H     1.305000000    -1.535000000    -3.984000000
C    -0.515000000    -1.992000000    -5.167000000
O    -0.397000000    -0.847000000    -5.986000000
C    -1.628000000    -2.792000000    -5.319000000
H    -2.380000000    -2.614000000    -6.084000000
C    -1.857000000    -3.790000000    -4.422000000
O    -3.000000000    -4.559000000    -4.532000000
C    -3.694000000    -5.023000000    -3.433000000
C    -4.453000000    -4.024000000    -2.788000000
H    -4.630000000    -3.067000000    -3.273000000
C    -3.549000000    -6.278000000    -2.801000000
H    -2.893000000    -6.990000000    -3.295000000
C    -4.141000000    -6.571000000    -1.577000000
H    -3.959000000    -7.583000000    -1.224000000
C    -4.774000000    -5.505000000    -0.892000000
H    -5.051000000    -5.673000000     0.145000000
C    -4.950000000    -4.263000000    -1.515000000
O    -5.681000000    -3.407000000    -0.774000000
C    -5.352000000    -2.772000000     0.398000000
C    -6.126000000    -1.723000000     0.876000000
H    -7.027000000    -1.377000000     0.374000000
C    -5.738000000    -1.026000000     1.988000000
O    -6.639000000    -0.077000000     2.535000000
C    -6.193000000     0.969000000     3.386000000
C    -5.560000000     2.121000000     2.865000000
H    -5.477000000     2.158000000     1.782000000
C    -6.327000000     0.915000000     4.788000000
H    -6.712000000     0.066000000     5.348000000
C    -5.626000000     1.804000000     5.565000000
H    -5.552000000     1.573000000     6.625000000
C    -5.047000000     2.929000000     5.010000000
H    -4.477000000     3.694000000     5.530000000
C    -5.076000000     3.117000000     3.626000000
O    -4.381000000     4.169000000     3.075000000
C    -3.056000000     4.131000000     2.717000000
C    -2.633000000     5.222000000     1.940000000
H    -3.256000000     6.099000000     1.787000000
C    -1.352000000     5.372000000     1.543000000
O    -1.114000000     6.359000000     0.641000000
C     0.043000000     6.868000000     0.091000000
C     0.623000000     6.207000000    -0.917000000
H     0.286000000     5.205000000    -1.169000000
C     0.424000000     8.194000000     0.396000000
H    -0.147000000     8.807000000     1.089000000
C     1.438000000     8.819000000    -0.321000000
H     1.737000000     9.836000000    -0.080000000
C     1.958000000     8.180000000    -1.443000000
H     2.750000000     8.726000000    -1.950000000
C     1.577000000     6.845000000    -1.714000000
O     2.200000000     6.254000000    -2.830000000
C     2.434000000     4.908000000    -3.072000000
C     2.350000000     4.544000000    -4.412000000
H     2.056000000     5.214000000    -5.215000000
C     2.639000000     3.227000000    -4.736000000
O     2.655000000     2.887000000    -6.104000000
C     2.335000000     1.587000000    -6.500000000
C     3.351000000     0.741000000    -6.829000000
H     4.359000000     1.139000000    -6.904000000
C     3.133000000    -0.599000000    -7.035000000
H     3.940000000    -1.244000000    -7.373000000
C     1.858000000    -1.151000000    -6.839000000
H     1.656000000    -2.210000000    -6.976000000
C     0.806000000    -0.350000000    -6.380000000
C     1.054000000     1.045000000    -6.233000000
H     0.230000000     1.631000000    -5.834000000
C     0.360000000     1.326000000    -0.637000000
H     0.846000000     2.285000000    -0.797000000
C     0.931000000     0.373000000     0.240000000
H     1.820000000     0.615000000     0.818000000
C     0.372000000    -0.883000000     0.434000000
H     0.785000000    -1.522000000     1.226000000
C    -0.774000000    -1.204000000    -0.268000000
H    -1.252000000    -2.166000000    -0.101000000
C    -1.424000000    -0.298000000    -1.069000000
H    -2.290000000    -0.607000000    -1.648000000
C    -0.880000000     1.010000000    -1.246000000
C    -1.617000000     1.994000000    -2.125000000
O    -2.658000000     1.670000000    -2.670000000
O    -1.205000000     3.141000000    -2.239000000
O    -0.341000000     4.972000000    -6.481000000
H     0.485000000     4.722000000    -6.894000000
H    -0.962000000     5.036000000    -7.207000000
O    -7.029000000     1.759000000    -6.051000000
H    -7.077000000     1.037000000    -5.425000000
H    -7.526000000     2.466000000    -5.639000000
O    -5.688000000    -1.592000000    -4.953000000
H    -6.483000000    -1.387000000    -4.461000000
H    -5.055000000    -0.931000000    -4.673000000
O    -3.399000000     8.144000000    -5.949000000
H    -2.454000000     8.297000000    -5.971000000
H    -3.486000000     7.192000000    -5.900000000
O    -0.515000000     7.776000000    -5.691000000
H    -0.300000000     8.031000000    -6.588000000
H    -0.189000000     6.880000000    -5.611000000
O    -7.685000000     1.203000000    -0.763000000
H    -6.977000000     0.688000000    -1.151000000
H    -7.251000000     1.982000000    -0.414000000
O    -3.657000000     5.530000000    -4.627000000
H    -4.124000000     5.980000000    -3.923000000
H    -2.737000000     5.753000000    -4.485000000
O    -1.764000000     1.453000000    -8.081000000
H    -1.525000000     2.097000000    -7.414000000
H    -2.643000000     1.166000000    -7.833000000
O    -6.235000000     4.519000000    -5.477000000
H    -5.358000000     4.900000000    -5.466000000
H    -6.098000000     3.595000000    -5.266000000
O    -4.114000000     2.639000000    -5.545000000
H    -3.557000000     3.385000000    -5.324000000
H    -3.966000000     2.012000000    -4.837000000
O    -0.887000000     5.316000000    -3.720000000
H    -0.937000000     4.640000000    -3.044000000
H    -0.380000000     4.913000000    -4.425000000
O    -3.599000000     7.033000000    -2.026000000
H    -3.434000000     6.201000000    -1.582000000
H    -2.728000000     7.381000000    -2.215000000
O    -4.223000000     0.214000000    -7.287000000
H    -3.956000000    -0.094000000    -6.421000000
H    -4.854000000     0.912000000    -7.109000000
O    -3.245000000     4.468000000    -1.016000000
H    -2.704000000     4.363000000    -0.234000000
H    -2.986000000     3.744000000    -1.586000000
O    -5.577000000     3.317000000    -8.322000000
H    -5.018000000     3.226000000    -7.551000000
H    -5.706000000     2.421000000    -8.631000000
O    -4.943000000     0.270000000    -1.918000000
H    -4.455000000    -0.139000000    -1.203000000
H    -4.305000000     0.841000000    -2.347000000
O    -3.013000000    -0.079000000    -4.766000000
H    -2.764000000     0.398000000    -3.974000000
H    -2.245000000    -0.020000000    -5.333000000
O    -1.110000000     8.287000000    -3.077000000
H    -0.847000000     8.174000000    -3.991000000
H    -0.766000000     7.513000000    -2.631000000
O    -6.302000000     3.507000000    -0.138000000
H    -6.952000000     4.149000000    -0.423000000
H    -5.488000000     3.790000000    -0.554000000
