215
-1443.62115
C    -4.205000000    -1.708000000     2.523000000
H    -3.765000000    -0.910000000     3.117000000
C    -3.371000000    -2.760000000     2.128000000
C    -3.922000000    -3.798000000     1.381000000
H    -3.293000000    -4.634000000     1.086000000
C    -1.870000000    -2.785000000     2.471000000
O    -1.705000000    -2.259000000     3.764000000
H    -1.389000000    -2.182000000     1.686000000
O    -1.317000000    -4.114000000     2.363000000
C    -0.107000000    -4.295000000     1.831000000
C    -0.104000000    -4.506000000     0.389000000
H    -1.030000000    -4.536000000    -0.180000000
C     1.130000000    -4.389000000    -0.211000000
O     1.052000000    -4.518000000    -1.584000000
C     2.338000000    -4.213000000     0.520000000
C     3.699000000    -4.157000000    -0.180000000
H     4.533000000    -4.350000000     0.499000000
C     3.923000000    -2.774000000    -0.766000000
C     4.519000000    -1.834000000     0.043000000
H     4.881000000    -2.104000000     1.032000000
H     3.724000000    -4.884000000    -0.994000000
C     2.259000000    -4.072000000     1.922000000
H     3.165000000    -3.878000000     2.492000000
C     1.028000000    -4.081000000     2.590000000
C     0.949000000    -3.668000000     4.081000000
H     1.907000000    -3.900000000     4.551000000
H     0.272000000    -4.327000000     4.629000000
C     0.674000000    -2.144000000     4.216000000
C     1.765000000    -1.338000000     4.391000000
H     2.765000000    -1.764000000     4.369000000
C    -0.600000000    -1.548000000     4.075000000
C    -0.777000000    -0.205000000     4.347000000
H    -1.780000000     0.214000000     4.321000000
C     0.364000000     0.582000000     4.561000000
O     0.160000000     1.981000000     4.572000000
C     0.418000000     2.600000000     3.275000000
C    -0.741000000     3.516000000     3.043000000
C    -0.389000000     4.750000000     2.619000000
H     0.640000000     5.099000000     2.585000000
C    -2.107000000     3.132000000     3.163000000
H    -2.405000000     2.143000000     3.500000000
O     1.663000000     3.207000000     3.376000000
H     0.352000000     1.796000000     2.527000000
C     1.591000000     0.021000000     4.510000000
C     2.877000000     0.893000000     4.691000000
H     3.662000000     0.337000000     5.208000000
H     2.730000000     1.760000000     5.339000000
C     3.374000000     1.444000000     3.356000000
C     4.369000000     0.865000000     2.581000000
H     4.789000000    -0.095000000     2.873000000
C     2.759000000     2.575000000     2.830000000
C     3.155000000     3.103000000     1.626000000
H     2.598000000     3.901000000     1.141000000
C     4.135000000     2.530000000     0.843000000
O     4.160000000     2.840000000    -0.520000000
C     3.526000000     1.999000000    -1.476000000
C     2.684000000     2.768000000    -2.497000000
C     1.725000000     3.678000000    -2.021000000
H     1.709000000     3.964000000    -0.973000000
C     2.821000000     2.462000000    -3.878000000
H     3.543000000     1.728000000    -4.225000000
O     4.473000000     1.138000000    -2.137000000
H     2.870000000     1.304000000    -0.930000000
C     4.646000000     1.333000000     1.308000000
C     5.539000000     0.454000000     0.375000000
H     6.035000000    -0.192000000     1.102000000
H     6.357000000     0.972000000    -0.130000000
C     4.776000000    -0.542000000    -0.524000000
C     4.326000000    -0.207000000    -1.764000000
C     3.579000000    -1.053000000    -2.529000000
H     3.194000000    -0.712000000    -3.486000000
C     3.414000000    -2.413000000    -2.094000000
O     2.608000000    -3.262000000    -2.800000000
C     1.232000000    -3.257000000    -2.350000000
H     1.073000000    -2.401000000    -1.677000000
C     0.145000000    -2.979000000    -3.408000000
C    -1.213000000    -3.344000000    -3.119000000
H    -1.501000000    -3.774000000    -2.163000000
C     0.435000000    -2.290000000    -4.627000000
H     1.415000000    -1.827000000    -4.700000000
C    -0.631000000    -1.919000000    -5.499000000
O    -0.413000000    -1.112000000    -6.590000000
C    -1.869000000    -2.489000000    -5.313000000
H    -2.659000000    -2.293000000    -6.034000000
C    -2.186000000    -3.222000000    -4.116000000
O    -3.483000000    -3.686000000    -3.946000000
C    -3.843000000    -4.563000000    -2.928000000
C    -4.746000000    -4.185000000    -1.986000000
H    -5.222000000    -3.216000000    -2.109000000
C    -3.162000000    -5.728000000    -2.796000000
H    -2.368000000    -5.978000000    -3.495000000
C    -3.518000000    -6.752000000    -1.825000000
H    -2.924000000    -7.662000000    -1.812000000
C    -4.473000000    -6.344000000    -0.801000000
H    -4.770000000    -6.996000000     0.016000000
C    -5.046000000    -5.059000000    -0.952000000
O    -5.753000000    -4.660000000     0.142000000
C    -5.277000000    -3.736000000     1.011000000
C    -6.053000000    -2.606000000     1.375000000
H    -7.085000000    -2.637000000     1.036000000
C    -5.547000000    -1.654000000     2.222000000
O    -6.475000000    -0.665000000     2.695000000
C    -6.095000000     0.417000000     3.497000000
C    -5.507000000     1.572000000     2.843000000
H    -5.424000000     1.542000000     1.760000000
C    -6.152000000     0.370000000     4.884000000
H    -6.561000000    -0.535000000     5.327000000
C    -5.587000000     1.380000000     5.680000000
H    -5.458000000     1.397000000     6.760000000
C    -5.078000000     2.492000000     4.987000000
H    -4.670000000     3.276000000     5.619000000
C    -5.008000000     2.603000000     3.594000000
O    -4.456000000     3.785000000     2.916000000
C    -3.093000000     4.069000000     2.802000000
C    -2.731000000     5.344000000     2.380000000
H    -3.514000000     5.960000000     1.947000000
C    -1.367000000     5.664000000     2.264000000
O    -0.794000000     6.863000000     1.855000000
C     0.015000000     6.926000000     0.704000000
C    -0.237000000     6.112000000    -0.373000000
H    -1.022000000     5.362000000    -0.429000000
C     0.926000000     7.949000000     0.629000000
H     1.024000000     8.557000000     1.525000000
C     1.804000000     8.088000000    -0.480000000
H     2.449000000     8.955000000    -0.597000000
C     1.654000000     7.143000000    -1.510000000
H     2.141000000     7.305000000    -2.469000000
C     0.600000000     6.188000000    -1.419000000
O     0.237000000     5.423000000    -2.510000000
C     1.020000000     4.412000000    -2.915000000
C     1.027000000     4.108000000    -4.264000000
H     0.321000000     4.583000000    -4.941000000
C     1.892000000     3.170000000    -4.714000000
O     1.954000000     2.958000000    -6.078000000
C     1.935000000     1.695000000    -6.536000000
C     2.984000000     1.183000000    -7.275000000
H     3.815000000     1.852000000    -7.480000000
C     2.930000000    -0.101000000    -7.722000000
H     3.761000000    -0.561000000    -8.251000000
C     1.760000000    -0.813000000    -7.527000000
H     1.701000000    -1.832000000    -7.902000000
C     0.694000000    -0.317000000    -6.726000000
C     0.763000000     1.009000000    -6.262000000
H    -0.004000000     1.564000000    -5.728000000
C    -0.722000000     1.569000000    -0.719000000
H    -0.580000000     2.645000000    -0.786000000
C     0.160000000     0.756000000    -0.001000000
H     0.998000000     1.256000000     0.478000000
C    -0.038000000    -0.594000000     0.153000000
H     0.626000000    -1.174000000     0.835000000
C    -1.164000000    -1.161000000    -0.434000000
H    -1.431000000    -2.212000000    -0.372000000
C    -2.042000000    -0.368000000    -1.175000000
H    -2.820000000    -0.905000000    -1.712000000
C    -1.929000000     1.026000000    -1.231000000
C    -2.935000000     1.863000000    -1.972000000
O    -3.525000000     1.312000000    -2.832000000
O    -3.131000000     3.008000000    -1.615000000
O    -0.218000000     4.629000000    -7.640000000
H    -0.559000000     4.075000000    -8.342000000
H     0.022000000     4.014000000    -6.946000000
O    -6.607000000     1.372000000    -5.157000000
H    -6.366000000     1.988000000    -4.465000000
H    -6.749000000     1.920000000    -5.928000000
O    -6.927000000    -1.407000000    -4.998000000
H    -6.903000000    -0.451000000    -4.958000000
H    -6.325000000    -1.692000000    -4.310000000
O    -8.986000000     1.222000000    -0.197000000
H    -8.459000000     0.772000000    -0.858000000
H    -8.617000000     2.104000000    -0.157000000
O    -5.910000000     7.344000000    -2.238000000
H    -6.782000000     7.137000000    -1.902000000
H    -5.342000000     7.309000000    -1.468000000
O    -2.880000000     1.128000000    -7.940000000
H    -3.001000000     0.184000000    -7.832000000
H    -2.740000000     1.454000000    -7.051000000
O    -7.037000000     3.834000000    -6.521000000
H    -7.095000000     4.336000000    -5.708000000
H    -7.838000000     4.053000000    -6.995000000
O    -5.924000000     2.738000000    -2.979000000
H    -5.723000000     3.558000000    -2.529000000
H    -5.109000000     2.236000000    -2.939000000
O    -2.654000000     2.204000000    -5.529000000
H    -2.597000000     3.071000000    -5.127000000
H    -2.914000000     1.624000000    -4.814000000
O    -2.312000000     4.395000000    -3.767000000
H    -2.864000000     4.015000000    -3.083000000
H    -1.453000000     4.491000000    -3.355000000
O    -4.719000000     7.142000000     0.042000000
H    -3.970000000     7.602000000     0.421000000
H    -5.481000000     7.643000000     0.333000000
O    -5.818000000    -0.434000000    -7.602000000
H    -6.157000000    -0.395000000    -6.708000000
H    -6.159000000     0.356000000    -8.022000000
O    -5.147000000     4.226000000    -0.516000000
H    -4.335000000     3.861000000    -0.868000000
H    -4.943000000     5.145000000    -0.347000000
O    -6.919000000     5.501000000    -4.349000000
H    -5.979000000     5.673000000    -4.289000000
H    -7.279000000     5.851000000    -3.533000000
O    -3.185000000     6.901000000    -4.860000000
H    -3.017000000     6.640000000    -5.766000000
H    -3.096000000     6.091000000    -4.358000000
O    -7.571000000     0.021000000    -2.232000000
H    -7.319000000    -0.824000000    -1.859000000
H    -6.930000000     0.176000000    -2.926000000
O    -4.817000000    -1.171000000    -3.232000000
H    -4.367000000    -0.348000000    -3.045000000
H    -4.142000000    -1.733000000    -3.612000000
O    -9.782000000     3.061000000    -2.820000000
H    -9.140000000     3.771000000    -2.839000000
H    -9.265000000     2.276000000    -2.642000000
O    -7.938000000     3.594000000    -0.096000000
H    -8.017000000     3.934000000     0.795000000
H    -7.011000000     3.701000000    -0.312000000
