215
-1464.10586
C     3.241000000    -2.644000000    -1.819000000
H     2.307000000    -3.198000000    -1.768000000
C     3.942000000    -2.129000000    -0.677000000
C     5.052000000    -1.257000000    -0.996000000
H     5.582000000    -0.765000000    -0.185000000
C     3.369000000    -2.298000000     0.721000000
O     3.039000000    -3.629000000     0.929000000
H     2.388000000    -1.804000000     0.777000000
O     4.207000000    -1.780000000     1.800000000
C     3.581000000    -1.007000000     2.747000000
C     3.757000000     0.352000000     2.683000000
H     4.314000000     0.711000000     1.821000000
C     3.080000000     1.248000000     3.507000000
O     3.181000000     2.524000000     3.280000000
C     2.168000000     0.762000000     4.497000000
C     1.269000000     1.691000000     5.347000000
H     1.052000000     1.118000000     6.251000000
C     0.079000000     1.964000000     4.557000000
C    -1.047000000     1.208000000     4.797000000
H    -0.926000000     0.319000000     5.411000000
H     1.786000000     2.634000000     5.533000000
C     1.964000000    -0.634000000     4.555000000
H     1.341000000    -1.108000000     5.309000000
C     2.658000000    -1.534000000     3.715000000
C     2.554000000    -3.042000000     3.793000000
H     2.013000000    -3.194000000     4.729000000
H     3.433000000    -3.689000000     3.794000000
C     1.487000000    -3.603000000     2.813000000
C     0.243000000    -3.907000000     3.231000000
H     0.026000000    -3.803000000     4.291000000
C     1.791000000    -3.899000000     1.451000000
C     0.776000000    -4.351000000     0.624000000
H     1.046000000    -4.628000000    -0.392000000
C    -0.520000000    -4.423000000     1.118000000
O    -1.485000000    -4.824000000     0.176000000
C    -2.207000000    -3.675000000    -0.313000000
C    -2.565000000    -3.838000000    -1.803000000
C    -3.735000000    -3.310000000    -2.376000000
H    -4.514000000    -2.907000000    -1.734000000
C    -1.617000000    -4.397000000    -2.672000000
H    -0.680000000    -4.745000000    -2.245000000
O    -3.411000000    -3.631000000     0.475000000
H    -1.638000000    -2.734000000    -0.281000000
C    -0.815000000    -4.329000000     2.450000000
C    -2.285000000    -4.314000000     2.951000000
H    -2.431000000    -4.697000000     3.963000000
H    -2.860000000    -5.098000000     2.455000000
C    -2.978000000    -2.940000000     2.720000000
C    -2.825000000    -1.883000000     3.639000000
H    -2.313000000    -2.017000000     4.589000000
C    -3.500000000    -2.683000000     1.430000000
C    -4.064000000    -1.486000000     1.069000000
H    -4.585000000    -1.264000000     0.141000000
C    -4.033000000    -0.427000000     1.993000000
O    -4.431000000     0.830000000     1.616000000
C    -3.405000000     1.706000000     1.229000000
C    -3.748000000     2.290000000    -0.126000000
C    -4.574000000     1.663000000    -1.109000000
H    -5.124000000     0.741000000    -0.942000000
C    -3.140000000     3.474000000    -0.450000000
H    -2.551000000     3.927000000     0.343000000
O    -3.239000000     2.717000000     2.323000000
H    -2.481000000     1.115000000     1.142000000
C    -3.407000000    -0.648000000     3.251000000
C    -3.419000000     0.470000000     4.296000000
H    -3.282000000     0.014000000     5.279000000
H    -4.425000000     0.875000000     4.431000000
C    -2.292000000     1.481000000     4.169000000
C    -2.266000000     2.542000000     3.245000000
C    -1.133000000     3.315000000     2.938000000
H    -1.214000000     3.993000000     2.092000000
C     0.105000000     3.008000000     3.594000000
O     1.228000000     3.749000000     3.300000000
C     2.151000000     3.082000000     2.484000000
H     1.568000000     2.292000000     1.989000000
C     2.761000000     4.033000000     1.442000000
C     3.960000000     3.723000000     0.735000000
H     4.484000000     2.825000000     1.051000000
C     2.016000000     5.184000000     1.093000000
H     1.030000000     5.395000000     1.497000000
C     2.424000000     5.902000000    -0.070000000
O     1.671000000     6.883000000    -0.615000000
C     3.635000000     5.682000000    -0.753000000
H     3.823000000     6.176000000    -1.703000000
C     4.347000000     4.546000000    -0.358000000
O     5.478000000     4.286000000    -1.126000000
C     6.260000000     3.206000000    -1.033000000
C     5.887000000     2.024000000    -1.738000000
H     4.986000000     2.031000000    -2.346000000
C     7.441000000     3.251000000    -0.299000000
H     7.738000000     4.085000000     0.332000000
C     8.265000000     2.077000000    -0.297000000
H     9.131000000     2.096000000     0.359000000
C     7.902000000     0.906000000    -0.957000000
H     8.521000000     0.012000000    -0.968000000
C     6.746000000     0.946000000    -1.710000000
O     6.480000000    -0.124000000    -2.551000000
C     5.397000000    -0.926000000    -2.305000000
C     4.678000000    -1.399000000    -3.447000000
H     4.872000000    -1.097000000    -4.473000000
C     3.655000000    -2.257000000    -3.119000000
O     2.930000000    -2.654000000    -4.148000000
C     2.334000000    -3.895000000    -4.302000000
C     0.930000000    -3.948000000    -4.497000000
H     0.390000000    -3.025000000    -4.693000000
C     3.075000000    -5.044000000    -4.269000000
H     4.142000000    -5.009000000    -4.063000000
C     2.412000000    -6.283000000    -4.487000000
H     3.005000000    -7.180000000    -4.646000000
C     1.054000000    -6.292000000    -4.718000000
H     0.524000000    -7.239000000    -4.778000000
C     0.300000000    -5.181000000    -4.563000000
O    -1.073000000    -5.245000000    -4.812000000
C    -1.941000000    -4.523000000    -4.018000000
C    -3.125000000    -4.015000000    -4.527000000
H    -3.302000000    -4.195000000    -5.584000000
C    -4.059000000    -3.478000000    -3.710000000
O    -5.307000000    -3.154000000    -4.192000000
C    -6.051000000    -2.081000000    -3.752000000
C    -5.426000000    -0.790000000    -3.711000000
H    -4.409000000    -0.594000000    -4.040000000
C    -7.353000000    -2.274000000    -3.292000000
H    -7.818000000    -3.257000000    -3.263000000
C    -8.031000000    -1.195000000    -2.755000000
H    -9.066000000    -1.282000000    -2.434000000
C    -7.488000000     0.094000000    -2.724000000
H    -7.969000000     1.016000000    -2.407000000
C    -6.201000000     0.317000000    -3.259000000
O    -5.693000000     1.633000000    -3.251000000
C    -4.814000000     2.209000000    -2.332000000
C    -4.106000000     3.394000000    -2.610000000
H    -4.258000000     3.750000000    -3.626000000
C    -3.284000000     4.005000000    -1.713000000
O    -2.568000000     5.217000000    -2.075000000
C    -1.808000000     6.062000000    -1.276000000
C    -2.460000000     6.985000000    -0.453000000
H    -3.545000000     7.016000000    -0.490000000
C    -1.756000000     7.894000000     0.301000000
H    -2.261000000     8.550000000     1.005000000
C    -0.369000000     7.779000000     0.323000000
H     0.210000000     8.525000000     0.861000000
C     0.290000000     6.886000000    -0.516000000
C    -0.440000000     6.044000000    -1.323000000
H     0.162000000     5.309000000    -1.851000000
C    -0.414000000    -0.465000000    -1.769000000
H    -1.314000000    -0.840000000    -2.251000000
C    -0.397000000    -0.455000000    -0.365000000
H    -1.278000000    -0.860000000     0.126000000
C     0.587000000     0.234000000     0.321000000
H     0.573000000     0.335000000     1.405000000
C     1.645000000     0.791000000    -0.389000000
H     2.418000000     1.338000000     0.143000000
C     1.692000000     0.767000000    -1.790000000
H     2.614000000     1.133000000    -2.235000000
C     0.655000000     0.142000000    -2.473000000
C     0.610000000     0.069000000    -4.039000000
O     1.283000000     0.820000000    -4.673000000
O    -0.132000000    -0.749000000    -4.571000000
O     2.053000000     5.546000000    -4.062000000
H     2.048000000     5.673000000    -5.010000000
H     1.500000000     4.777000000    -3.921000000
O     4.529000000     3.150000000    -7.795000000
H     5.345000000     2.714000000    -7.549000000
H     4.147000000     3.430000000    -6.963000000
O    -1.653000000     4.859000000    -7.191000000
H    -2.489000000     4.587000000    -7.569000000
H    -1.779000000     4.777000000    -6.246000000
O    -1.731000000     4.643000000    -4.508000000
H    -2.240000000     4.645000000    -3.697000000
H    -0.937000000     4.153000000    -4.292000000
O    -3.970000000     1.746000000    -6.100000000
H    -3.148000000     1.858000000    -5.621000000
H    -3.796000000     1.030000000    -6.710000000
O     4.831000000     4.498000000    -4.667000000
H     3.952000000     4.869000000    -4.591000000
H     4.692000000     3.551000000    -4.662000000
O     2.006000000    -4.476000000    -7.354000000
H     1.825000000    -4.721000000    -6.446000000
H     2.880000000    -4.826000000    -7.526000000
O    -1.272000000     1.918000000    -5.888000000
H    -1.276000000     1.896000000    -6.845000000
H    -0.490000000     1.425000000    -5.641000000
O     3.909000000     1.624000000    -5.220000000
H     4.234000000     0.846000000    -5.673000000
H     3.004000000     1.409000000    -4.994000000
O     4.752000000    -0.558000000    -7.357000000
H     4.665000000    -0.388000000    -8.295000000
H     4.847000000    -1.508000000    -7.293000000
O     0.605000000    -0.490000000    -7.089000000
H    -0.071000000    -1.081000000    -6.757000000
H     0.800000000     0.089000000    -6.351000000
O     2.347000000     5.906000000    -6.821000000
H     1.793000000     5.163000000    -7.065000000
H     2.703000000     6.221000000    -7.652000000
O     0.782000000     3.982000000    -7.576000000
H    -0.054000000     4.329000000    -7.265000000
H     0.545000000     3.213000000    -8.095000000
O    -1.741000000    -1.701000000    -6.089000000
H    -1.272000000    -2.478000000    -6.394000000
H    -1.219000000    -1.379000000    -5.354000000
O    -1.364000000    -3.955000000    -7.911000000
H    -0.798000000    -3.872000000    -8.678000000
H    -1.326000000    -4.884000000    -7.685000000
O     2.151000000    -1.973000000    -8.830000000
H     1.769000000    -1.312000000    -8.254000000
H     2.259000000    -2.744000000    -8.273000000
O     0.891000000     3.248000000    -3.471000000
H     1.412000000     2.896000000    -2.750000000
H     0.817000000     2.522000000    -4.090000000
O    -0.834000000     1.556000000    -8.443000000
H    -0.079000000     0.977000000    -8.340000000
H    -1.449000000     1.055000000    -8.978000000
O    -4.188000000    -1.065000000    -7.352000000
H    -4.154000000    -1.897000000    -7.825000000
H    -3.399000000    -1.066000000    -6.809000000
