215
-1454.66962
C    -3.952000000    -1.852000000     2.744000000
H    -3.692000000    -1.502000000     3.739000000
C    -2.956000000    -2.508000000     1.926000000
C    -3.208000000    -2.765000000     0.589000000
H    -2.409000000    -3.171000000    -0.026000000
C    -1.502000000    -2.677000000     2.413000000
O    -1.508000000    -2.501000000     3.870000000
H    -0.827000000    -1.978000000     1.897000000
O    -1.024000000    -4.038000000     2.129000000
C     0.258000000    -4.132000000     1.668000000
C     0.448000000    -4.323000000     0.318000000
H    -0.348000000    -4.638000000    -0.352000000
C     1.715000000    -4.335000000    -0.159000000
O     1.914000000    -4.574000000    -1.538000000
C     2.844000000    -4.044000000     0.641000000
C     4.260000000    -3.843000000     0.002000000
H     5.066000000    -3.908000000     0.736000000
C     4.297000000    -2.390000000    -0.607000000
C     4.848000000    -1.402000000     0.215000000
H     5.114000000    -1.692000000     1.228000000
H     4.493000000    -4.529000000    -0.815000000
C     2.551000000    -3.742000000     1.981000000
H     3.379000000    -3.428000000     2.611000000
C     1.283000000    -3.893000000     2.541000000
C     1.197000000    -3.712000000     4.086000000
H     2.158000000    -3.949000000     4.547000000
H     0.451000000    -4.416000000     4.461000000
C     0.733000000    -2.273000000     4.433000000
C     1.745000000    -1.355000000     4.658000000
H     2.775000000    -1.671000000     4.802000000
C    -0.527000000    -1.840000000     4.486000000
C    -0.873000000    -0.572000000     4.763000000
H    -1.929000000    -0.339000000     4.657000000
C     0.084000000     0.450000000     4.822000000
O    -0.464000000     1.727000000     4.756000000
C    -0.302000000     2.354000000     3.528000000
C    -1.505000000     3.248000000     3.069000000
C    -1.304000000     4.199000000     2.107000000
H    -0.320000000     4.227000000     1.647000000
C    -2.757000000     3.029000000     3.629000000
H    -2.931000000     2.278000000     4.396000000
O     0.953000000     3.119000000     3.596000000
H    -0.282000000     1.590000000     2.736000000
C     1.401000000     0.031000000     4.837000000
C     2.554000000     1.027000000     4.882000000
H     3.466000000     0.510000000     5.190000000
H     2.398000000     1.763000000     5.673000000
C     2.859000000     1.579000000     3.536000000
C     3.933000000     1.049000000     2.788000000
H     4.456000000     0.164000000     3.139000000
C     2.128000000     2.653000000     3.002000000
C     2.435000000     3.208000000     1.799000000
H     1.816000000     3.915000000     1.253000000
C     3.505000000     2.746000000     1.075000000
O     3.698000000     3.335000000    -0.180000000
C     3.243000000     2.415000000    -1.294000000
C     2.503000000     3.155000000    -2.405000000
C     2.266000000     4.507000000    -2.298000000
H     2.658000000     5.075000000    -1.459000000
C     2.129000000     2.460000000    -3.531000000
H     2.298000000     1.386000000    -3.562000000
O     4.314000000     1.577000000    -1.815000000
H     2.468000000     1.814000000    -0.796000000
C     4.258000000     1.666000000     1.558000000
C     5.386000000     0.972000000     0.731000000
H     6.087000000     0.547000000     1.453000000
H     5.848000000     1.767000000     0.141000000
C     4.866000000    -0.085000000    -0.222000000
C     4.281000000     0.271000000    -1.477000000
C     3.766000000    -0.738000000    -2.277000000
H     3.323000000    -0.567000000    -3.255000000
C     3.811000000    -2.029000000    -1.852000000
O     3.256000000    -2.924000000    -2.701000000
C     1.909000000    -3.421000000    -2.430000000
H     1.380000000    -2.659000000    -1.838000000
C     1.078000000    -3.571000000    -3.666000000
C    -0.020000000    -4.377000000    -3.597000000
H    -0.201000000    -4.961000000    -2.698000000
C     1.357000000    -2.843000000    -4.773000000
H     2.180000000    -2.139000000    -4.683000000
C     0.520000000    -2.953000000    -5.849000000
O     0.608000000    -2.181000000    -6.991000000
C    -0.661000000    -3.677000000    -5.800000000
H    -1.306000000    -3.817000000    -6.663000000
C    -0.926000000    -4.422000000    -4.651000000
O    -2.074000000    -5.181000000    -4.574000000
C    -2.871000000    -5.246000000    -3.481000000
C    -3.285000000    -4.056000000    -2.828000000
H    -3.007000000    -3.075000000    -3.204000000
C    -3.401000000    -6.471000000    -3.167000000
H    -3.054000000    -7.354000000    -3.698000000
C    -4.335000000    -6.543000000    -2.141000000
H    -4.696000000    -7.491000000    -1.751000000
C    -4.684000000    -5.392000000    -1.408000000
H    -5.458000000    -5.451000000    -0.647000000
C    -4.202000000    -4.114000000    -1.801000000
O    -4.780000000    -2.989000000    -1.168000000
C    -4.527000000    -2.628000000     0.116000000
C    -5.504000000    -1.995000000     0.943000000
H    -6.496000000    -1.726000000     0.588000000
C    -5.189000000    -1.593000000     2.241000000
O    -6.194000000    -0.966000000     2.870000000
C    -6.051000000     0.078000000     3.775000000
C    -5.464000000     1.246000000     3.284000000
H    -5.002000000     1.310000000     2.302000000
C    -6.582000000     0.012000000     5.055000000
H    -7.175000000    -0.874000000     5.269000000
C    -6.523000000     1.115000000     5.923000000
H    -6.917000000     0.997000000     6.930000000
C    -5.924000000     2.318000000     5.401000000
H    -5.877000000     3.148000000     6.101000000
C    -5.408000000     2.373000000     4.098000000
O    -5.073000000     3.555000000     3.547000000
C    -3.822000000     3.842000000     3.150000000
C    -3.613000000     4.880000000     2.272000000
H    -4.416000000     5.527000000     1.927000000
C    -2.338000000     5.049000000     1.703000000
O    -2.143000000     6.029000000     0.749000000
C    -0.924000000     6.485000000     0.284000000
C    -0.638000000     6.201000000    -1.094000000
H    -1.357000000     5.610000000    -1.657000000
C     0.013000000     7.290000000     0.999000000
H    -0.273000000     7.620000000     1.995000000
C     1.163000000     7.823000000     0.369000000
H     1.870000000     8.441000000     0.917000000
C     1.398000000     7.537000000    -0.971000000
H     2.175000000     8.042000000    -1.538000000
C     0.522000000     6.747000000    -1.673000000
O     0.869000000     6.403000000    -2.967000000
C     1.353000000     5.086000000    -3.188000000
C     0.893000000     4.372000000    -4.325000000
H     0.224000000     4.914000000    -4.990000000
C     1.383000000     3.094000000    -4.514000000
O     0.850000000     2.394000000    -5.544000000
C     1.506000000     1.328000000    -6.187000000
C     2.513000000     1.555000000    -7.084000000
H     2.927000000     2.555000000    -7.180000000
C     3.007000000     0.484000000    -7.862000000
H     3.794000000     0.659000000    -8.592000000
C     2.375000000    -0.753000000    -7.844000000
H     2.849000000    -1.602000000    -8.329000000
C     1.336000000    -0.969000000    -7.006000000
C     0.860000000     0.057000000    -6.180000000
H     0.130000000    -0.134000000    -5.397000000
C    -0.919000000     1.517000000    -1.363000000
H    -1.048000000     2.593000000    -1.453000000
C    -0.052000000     0.912000000    -0.383000000
H     0.517000000     1.504000000     0.329000000
C     0.003000000    -0.480000000    -0.304000000
H     0.556000000    -0.934000000     0.474000000
C    -0.622000000    -1.275000000    -1.242000000
H    -0.675000000    -2.359000000    -1.192000000
C    -1.254000000    -0.641000000    -2.315000000
H    -1.455000000    -1.339000000    -3.124000000
C    -1.481000000     0.742000000    -2.380000000
C    -2.204000000     1.463000000    -3.465000000
O    -2.532000000     0.751000000    -4.367000000
O    -2.742000000     2.503000000    -3.248000000
O    -5.874000000     1.792000000    -0.008000000
H    -6.165000000     1.236000000    -0.731000000
H    -4.983000000     1.498000000     0.177000000
O    -2.944000000     4.925000000    -8.425000000
H    -2.520000000     4.239000000    -8.941000000
H    -3.619000000     4.466000000    -7.926000000
O    -8.874000000     1.765000000    -3.001000000
H    -8.157000000     1.244000000    -2.640000000
H    -9.265000000     1.204000000    -3.670000000
O    -4.371000000    -1.009000000    -4.229000000
H    -3.487000000    -0.679000000    -4.069000000
H    -4.399000000    -1.170000000    -5.173000000
O    -2.988000000     6.710000000    -6.173000000
H    -2.948000000     6.389000000    -5.272000000
H    -3.183000000     5.932000000    -6.696000000
O    -2.529000000     5.047000000    -3.656000000
H    -2.497000000     4.156000000    -3.309000000
H    -3.299000000     5.438000000    -3.244000000
O     0.304000000     3.585000000    -8.140000000
H    -0.402000000     3.331000000    -8.735000000
H    -0.026000000     3.367000000    -7.269000000
O    -3.460000000     0.818000000     0.210000000
H    -2.585000000     1.004000000    -0.129000000
H    -3.545000000    -0.133000000     0.146000000
O    -4.360000000    -1.174000000    -7.274000000
H    -3.734000000    -0.655000000    -7.779000000
H    -4.337000000    -2.040000000    -7.681000000
O    -1.168000000    -0.122000000   -10.058000000
H    -0.316000000    -0.248000000    -9.640000000
H    -1.774000000     0.020000000    -9.330000000
O    -5.145000000     3.750000000    -7.215000000
H    -5.805000000     3.309000000    -7.750000000
H    -4.851000000     3.081000000    -6.597000000
O    -2.150000000     3.096000000    -6.247000000
H    -1.646000000     2.410000000    -5.808000000
H    -2.544000000     3.598000000    -5.534000000
O    -4.843000000     6.294000000    -2.215000000
H    -5.291000000     6.264000000    -3.060000000
H    -4.838000000     5.385000000    -1.914000000
O    -6.109000000    -3.465000000    -5.250000000
H    -6.532000000    -2.680000000    -5.599000000
H    -5.304000000    -3.143000000    -4.845000000
O    -5.082000000     3.527000000    -1.967000000
H    -5.459000000     2.968000000    -1.288000000
H    -4.408000000     2.984000000    -2.376000000
O    -2.875000000     1.056000000    -8.224000000
H    -2.624000000     1.890000000    -7.825000000
H    -3.633000000     1.270000000    -8.767000000
O    -6.410000000     0.055000000    -2.116000000
H    -5.722000000    -0.176000000    -2.740000000
H    -7.027000000    -0.675000000    -2.159000000
O    -5.124000000     1.734000000    -5.190000000
H    -4.381000000     2.085000000    -4.700000000
H    -5.006000000     0.784000000    -5.156000000
O    -7.349000000     4.282000000    -3.386000000
H    -6.562000000     3.871000000    -3.027000000
H    -8.011000000     3.592000000    -3.362000000
