215
-1446.82137
C    -4.142000000    -1.100000000     2.375000000
H    -3.897000000    -0.255000000     3.013000000
C    -3.347000000    -2.226000000     2.215000000
C    -3.576000000    -3.340000000     1.353000000
H    -2.928000000    -4.213000000     1.345000000
C    -1.983000000    -2.108000000     2.831000000
O    -1.999000000    -1.371000000     4.193000000
H    -1.228000000    -1.588000000     2.223000000
O    -1.327000000    -3.408000000     2.973000000
C     0.002000000    -3.642000000     2.642000000
C     0.258000000    -4.238000000     1.450000000
H    -0.536000000    -4.698000000     0.867000000
C     1.544000000    -4.255000000     0.986000000
O     1.733000000    -4.672000000    -0.337000000
C     2.612000000    -3.733000000     1.746000000
C     3.952000000    -3.634000000     1.133000000
H     4.605000000    -3.577000000     2.007000000
C     4.140000000    -2.410000000     0.196000000
C     4.665000000    -1.262000000     0.786000000
H     4.873000000    -1.326000000     1.852000000
H     4.137000000    -4.469000000     0.455000000
C     2.292000000    -3.243000000     3.053000000
H     3.058000000    -2.807000000     3.689000000
C     0.955000000    -3.077000000     3.455000000
C     0.692000000    -2.451000000     4.787000000
H     1.528000000    -2.529000000     5.485000000
H    -0.164000000    -3.073000000     5.057000000
C     0.407000000    -0.947000000     4.748000000
C     1.433000000     0.018000000     4.831000000
H     2.465000000    -0.273000000     5.008000000
C    -0.916000000    -0.469000000     4.395000000
C    -1.112000000     0.923000000     4.416000000
H    -2.137000000     1.241000000     4.248000000
C    -0.061000000     1.852000000     4.433000000
O    -0.361000000     3.106000000     4.172000000
C    -0.133000000     3.482000000     2.782000000
C    -1.257000000     4.382000000     2.320000000
C    -0.991000000     5.343000000     1.350000000
H     0.030000000     5.494000000     1.007000000
C    -2.539000000     4.171000000     2.793000000
H    -2.704000000     3.402000000     3.544000000
O     1.084000000     4.224000000     2.680000000
H    -0.029000000     2.651000000     2.069000000
C     1.220000000     1.418000000     4.634000000
C     2.408000000     2.350000000     4.542000000
H     3.311000000     2.020000000     5.060000000
H     2.140000000     3.303000000     5.003000000
C     2.849000000     2.492000000     3.111000000
C     3.883000000     1.794000000     2.574000000
H     4.465000000     1.141000000     3.219000000
C     2.136000000     3.428000000     2.275000000
C     2.473000000     3.618000000     0.990000000
H     1.953000000     4.311000000     0.334000000
C     3.534000000     2.813000000     0.470000000
O     3.891000000     2.916000000    -0.821000000
C     3.369000000     1.851000000    -1.723000000
C     2.662000000     2.418000000    -2.960000000
C     1.922000000     3.619000000    -2.939000000
H     2.012000000     4.266000000    -2.070000000
C     2.491000000     1.650000000    -4.109000000
H     2.982000000     0.681000000    -4.108000000
O     4.533000000     1.000000000    -2.132000000
H     2.676000000     1.295000000    -1.075000000
C     4.289000000     1.974000000     1.278000000
C     5.411000000     1.154000000     0.676000000
H     6.093000000     0.984000000     1.512000000
H     6.048000000     1.674000000    -0.042000000
C     4.866000000    -0.102000000     0.052000000
C     4.539000000    -0.106000000    -1.336000000
C     4.016000000    -1.274000000    -1.879000000
H     3.731000000    -1.279000000    -2.928000000
C     3.762000000    -2.415000000    -1.169000000
O     3.261000000    -3.588000000    -1.739000000
C     1.886000000    -3.727000000    -1.395000000
H     1.451000000    -2.781000000    -1.039000000
C     0.983000000    -4.152000000    -2.505000000
C     0.049000000    -5.161000000    -2.306000000
H    -0.153000000    -5.576000000    -1.322000000
C     0.980000000    -3.524000000    -3.727000000
H     1.797000000    -2.831000000    -3.912000000
C     0.164000000    -3.909000000    -4.744000000
O     0.357000000    -3.372000000    -5.948000000
C    -0.770000000    -4.894000000    -4.597000000
H    -1.278000000    -5.226000000    -5.499000000
C    -0.827000000    -5.534000000    -3.346000000
O    -1.862000000    -6.461000000    -3.081000000
C    -2.802000000    -6.387000000    -2.052000000
C    -3.389000000    -5.169000000    -1.761000000
H    -3.239000000    -4.225000000    -2.279000000
C    -3.209000000    -7.549000000    -1.504000000
H    -2.756000000    -8.477000000    -1.845000000
C    -4.185000000    -7.610000000    -0.519000000
H    -4.497000000    -8.578000000    -0.135000000
C    -4.619000000    -6.375000000    -0.018000000
H    -5.373000000    -6.465000000     0.760000000
C    -4.351000000    -5.227000000    -0.702000000
O    -5.123000000    -4.106000000    -0.418000000
C    -4.673000000    -3.172000000     0.526000000
C    -5.493000000    -2.037000000     0.647000000
H    -6.412000000    -1.966000000     0.071000000
C    -5.233000000    -1.036000000     1.556000000
O    -6.002000000     0.083000000     1.551000000
C    -5.847000000     1.072000000     2.478000000
C    -5.252000000     2.235000000     2.136000000
H    -4.838000000     2.347000000     1.137000000
C    -6.372000000     0.914000000     3.788000000
H    -7.023000000     0.140000000     4.187000000
C    -6.208000000     1.976000000     4.669000000
H    -6.485000000     1.781000000     5.702000000
C    -5.737000000     3.202000000     4.294000000
H    -5.749000000     4.100000000     4.906000000
C    -5.200000000     3.357000000     2.965000000
O    -4.898000000     4.630000000     2.521000000
C    -3.554000000     4.880000000     2.277000000
C    -3.299000000     5.922000000     1.428000000
H    -4.112000000     6.566000000     1.104000000
C    -2.059000000     6.091000000     0.828000000
O    -1.800000000     7.050000000    -0.137000000
C    -0.729000000     6.914000000    -0.936000000
C    -0.704000000     5.964000000    -1.947000000
H    -1.485000000     5.244000000    -2.177000000
C     0.373000000     7.698000000    -0.647000000
H     0.248000000     8.383000000     0.188000000
C     1.513000000     7.548000000    -1.496000000
H     2.365000000     8.209000000    -1.359000000
C     1.535000000     6.729000000    -2.615000000
H     2.419000000     6.646000000    -3.242000000
C     0.404000000     5.951000000    -2.829000000
O     0.376000000     5.178000000    -3.974000000
C     1.068000000     3.974000000    -4.002000000
C     0.941000000     3.201000000    -5.139000000
H     0.328000000     3.481000000    -5.992000000
C     1.701000000     2.035000000    -5.218000000
O     1.622000000     1.298000000    -6.370000000
C     1.809000000    -0.077000000    -6.518000000
C     2.943000000    -0.414000000    -7.195000000
H     3.647000000     0.347000000    -7.519000000
C     3.223000000    -1.764000000    -7.444000000
H     4.125000000    -2.060000000    -7.974000000
C     2.351000000    -2.761000000    -6.990000000
H     2.586000000    -3.822000000    -6.993000000
C     1.231000000    -2.355000000    -6.273000000
C     0.959000000    -0.987000000    -5.986000000
H     0.099000000    -0.672000000    -5.400000000
C    -0.141000000     1.695000000    -1.618000000
H    -0.141000000     2.781000000    -1.682000000
C     0.177000000     1.002000000    -0.452000000
H     0.525000000     1.555000000     0.417000000
C     0.051000000    -0.361000000    -0.357000000
H     0.242000000    -0.886000000     0.517000000
C    -0.593000000    -1.008000000    -1.401000000
H    -0.768000000    -2.077000000    -1.310000000
C    -0.810000000    -0.403000000    -2.633000000
H    -1.320000000    -0.856000000    -3.479000000
C    -0.654000000     1.011000000    -2.689000000
C    -1.373000000     1.637000000    -3.811000000
O    -1.584000000     0.992000000    -4.851000000
O    -1.927000000     2.700000000    -3.653000000
O    -2.891000000     3.146000000    -1.261000000
H    -2.579000000     2.864000000    -2.121000000
H    -2.880000000     2.351000000    -0.729000000
O    -3.752000000    -0.622000000    -4.307000000
H    -3.014000000    -0.044000000    -4.501000000
H    -3.758000000    -1.252000000    -5.028000000
O    -2.658000000     4.916000000    -4.923000000
H    -2.321000000     4.059000000    -4.665000000
H    -1.897000000     5.495000000    -4.886000000
O    -3.063000000     0.137000000    -0.413000000
H    -2.178000000    -0.096000000    -0.694000000
H    -3.233000000    -0.431000000     0.338000000
O    -5.402000000     2.435000000    -7.402000000
H    -5.938000000     1.707000000    -7.719000000
H    -4.762000000     2.026000000    -6.820000000
O    -3.473000000    -3.065000000    -5.876000000
H    -2.861000000    -3.756000000    -6.128000000
H    -4.232000000    -3.200000000    -6.443000000
O    -1.785000000    -1.724000000    -8.167000000
H    -1.998000000    -1.896000000    -7.249000000
H    -1.796000000    -0.770000000    -8.240000000
O    -4.505000000     5.514000000    -6.970000000
H    -3.856000000     6.207000000    -7.091000000
H    -4.101000000     4.913000000    -6.344000000
O    -6.294000000     0.302000000    -4.162000000
H    -6.043000000     1.223000000    -4.229000000
H    -5.487000000    -0.149000000    -3.914000000
O     1.573000000     6.809000000    -6.913000000
H     1.210000000     6.246000000    -7.597000000
H     1.915000000     6.201000000    -6.258000000
O    -1.326000000     1.001000000    -7.640000000
H    -0.370000000     1.043000000    -7.684000000
H    -1.524000000     1.031000000    -6.704000000
O    -5.707000000     1.063000000    -1.198000000
H    -5.408000000     1.246000000    -2.089000000
H    -4.942000000     0.691000000    -0.760000000
O    -5.334000000     4.803000000    -0.810000000
H    -4.590000000     4.299000000    -1.140000000
H    -6.103000000     4.318000000    -1.108000000
O    -5.096000000     5.653000000    -4.167000000
H    -5.683000000     5.456000000    -4.897000000
H    -4.252000000     5.287000000    -4.434000000
O    -4.426000000     0.058000000    -9.578000000
H    -5.014000000     0.748000000    -9.886000000
H    -3.662000000     0.528000000    -9.242000000
O    -7.356000000     3.191000000    -1.446000000
H    -6.693000000     2.502000000    -1.397000000
H    -7.925000000     2.925000000    -2.168000000
O    -1.999000000     3.311000000    -9.054000000
H    -1.138000000     3.727000000    -9.079000000
H    -1.860000000     2.501000000    -8.564000000
O    -4.790000000     2.525000000    -4.199000000
H    -3.909000000     2.159000000    -4.268000000
H    -4.662000000     3.472000000    -4.259000000
O    -3.062000000     8.197000000    -2.896000000
H    -2.623000000     7.355000000    -2.774000000
H    -2.348000000     8.828000000    -2.984000000
