215
-1472.90760
C    -4.250000000    -0.895000000     3.016000000
H    -4.095000000    -0.339000000     3.937000000
C    -3.230000000    -1.756000000     2.488000000
C    -3.456000000    -2.333000000     1.266000000
H    -2.750000000    -3.032000000     0.824000000
C    -1.866000000    -1.958000000     3.231000000
O    -1.820000000    -1.320000000     4.601000000
H    -1.277000000    -1.367000000     2.513000000
O    -1.392000000    -3.296000000     3.347000000
C    -0.092000000    -3.478000000     2.922000000
C     0.103000000    -4.039000000     1.632000000
H    -0.696000000    -4.369000000     0.973000000
C     1.377000000    -4.156000000     1.094000000
O     1.487000000    -4.657000000    -0.167000000
C     2.517000000    -3.777000000     1.827000000
C     3.930000000    -3.921000000     1.237000000
H     4.594000000    -3.973000000     2.103000000
C     4.282000000    -2.689000000     0.367000000
C     4.978000000    -1.559000000     0.871000000
H     5.491000000    -1.606000000     1.828000000
H     4.017000000    -4.813000000     0.613000000
C     2.298000000    -3.264000000     3.117000000
H     3.079000000    -2.956000000     3.807000000
C     1.005000000    -3.119000000     3.603000000
C     0.874000000    -2.411000000     4.973000000
H     1.731000000    -2.472000000     5.647000000
H     0.050000000    -2.873000000     5.521000000
C     0.598000000    -0.978000000     4.817000000
C     1.646000000    -0.029000000     4.854000000
H     2.683000000    -0.311000000     5.015000000
C    -0.703000000    -0.524000000     4.705000000
C    -1.096000000     0.818000000     4.520000000
H    -2.133000000     1.132000000     4.435000000
C    -0.036000000     1.703000000     4.427000000
O    -0.337000000     2.954000000     3.920000000
C    -0.249000000     3.160000000     2.472000000
C    -1.425000000     3.902000000     1.826000000
C    -1.329000000     4.487000000     0.565000000
H    -0.345000000     4.458000000     0.104000000
C    -2.666000000     3.871000000     2.473000000
H    -2.843000000     3.467000000     3.467000000
O     1.006000000     3.891000000     2.322000000
H    -0.071000000     2.142000000     2.095000000
C     1.316000000     1.327000000     4.626000000
C     2.443000000     2.360000000     4.484000000
H     3.266000000     2.014000000     5.113000000
H     2.064000000     3.290000000     4.913000000
C     2.853000000     2.464000000     3.009000000
C     3.915000000     1.662000000     2.518000000
H     4.380000000     0.893000000     3.130000000
C     2.197000000     3.250000000     2.063000000
C     2.667000000     3.363000000     0.759000000
H     2.203000000     4.009000000     0.018000000
C     3.720000000     2.639000000     0.349000000
O     4.193000000     2.707000000    -0.938000000
C     3.590000000     1.684000000    -1.824000000
C     2.986000000     2.168000000    -3.100000000
C     2.479000000     3.489000000    -3.152000000
H     2.676000000     4.202000000    -2.355000000
C     2.841000000     1.296000000    -4.187000000
H     3.112000000     0.246000000    -4.101000000
O     4.674000000     0.771000000    -2.052000000
H     2.827000000     1.100000000    -1.288000000
C     4.319000000     1.761000000     1.213000000
C     5.447000000     0.915000000     0.783000000
H     6.020000000     0.605000000     1.659000000
H     6.074000000     1.578000000     0.183000000
C     5.010000000    -0.353000000     0.083000000
C     4.708000000    -0.401000000    -1.259000000
C     4.119000000    -1.540000000    -1.779000000
H     4.032000000    -1.617000000    -2.860000000
C     3.819000000    -2.675000000    -0.962000000
O     3.033000000    -3.623000000    -1.554000000
C     1.625000000    -3.709000000    -1.224000000
H     1.363000000    -2.689000000    -0.907000000
C     0.782000000    -4.033000000    -2.439000000
C    -0.389000000    -4.773000000    -2.292000000
H    -0.694000000    -5.046000000    -1.285000000
C     1.187000000    -3.632000000    -3.710000000
H     2.066000000    -2.995000000    -3.773000000
C     0.456000000    -4.030000000    -4.802000000
O     0.763000000    -3.781000000    -6.140000000
C    -0.652000000    -4.904000000    -4.681000000
H    -1.124000000    -5.301000000    -5.576000000
C    -1.089000000    -5.290000000    -3.411000000
O    -2.260000000    -6.052000000    -3.248000000
C    -3.158000000    -5.741000000    -2.217000000
C    -3.534000000    -4.388000000    -1.994000000
H    -3.218000000    -3.570000000    -2.636000000
C    -3.748000000    -6.725000000    -1.455000000
H    -3.589000000    -7.784000000    -1.641000000
C    -4.613000000    -6.486000000    -0.377000000
H    -5.156000000    -7.328000000     0.043000000
C    -4.938000000    -5.189000000    -0.104000000
H    -5.591000000    -4.846000000     0.695000000
C    -4.422000000    -4.140000000    -0.931000000
O    -4.785000000    -2.803000000    -0.631000000
C    -4.663000000    -2.261000000     0.618000000
C    -5.678000000    -1.448000000     1.120000000
H    -6.639000000    -1.254000000     0.648000000
C    -5.370000000    -0.685000000     2.229000000
O    -6.430000000     0.057000000     2.677000000
C    -6.326000000     1.308000000     3.307000000
C    -5.767000000     2.388000000     2.634000000
H    -5.465000000     2.295000000     1.594000000
C    -6.662000000     1.469000000     4.669000000
H    -7.018000000     0.660000000     5.302000000
C    -6.373000000     2.643000000     5.348000000
H    -6.532000000     2.739000000     6.419000000
C    -5.884000000     3.758000000     4.677000000
H    -5.623000000     4.630000000     5.270000000
C    -5.524000000     3.575000000     3.322000000
O    -4.964000000     4.594000000     2.608000000
C    -3.779000000     4.536000000     1.880000000
C    -3.627000000     5.097000000     0.645000000
H    -4.501000000     5.480000000     0.125000000
C    -2.455000000     5.112000000    -0.035000000
O    -2.400000000     5.741000000    -1.260000000
C    -1.154000000     6.165000000    -1.785000000
C    -0.639000000     5.535000000    -2.904000000
H    -1.229000000     4.775000000    -3.409000000
C    -0.418000000     7.187000000    -1.182000000
H    -0.792000000     7.640000000    -0.267000000
C     0.834000000     7.522000000    -1.726000000
H     1.386000000     8.346000000    -1.282000000
C     1.320000000     6.959000000    -2.926000000
H     2.288000000     7.329000000    -3.253000000
C     0.621000000     5.811000000    -3.381000000
O     1.260000000     5.155000000    -4.460000000
C     1.808000000     3.917000000    -4.308000000
C     1.596000000     2.996000000    -5.334000000
H     1.096000000     3.322000000    -6.243000000
C     2.145000000     1.696000000    -5.312000000
O     1.843000000     0.895000000    -6.382000000
C     2.142000000    -0.415000000    -6.574000000
C     3.431000000    -0.729000000    -6.877000000
H     4.162000000     0.076000000    -6.896000000
C     3.868000000    -2.008000000    -7.103000000
H     4.903000000    -2.159000000    -7.398000000
C     2.938000000    -3.067000000    -6.923000000
H     3.265000000    -4.070000000    -7.184000000
C     1.634000000    -2.751000000    -6.469000000
C     1.237000000    -1.439000000    -6.336000000
H     0.316000000    -1.248000000    -5.791000000
C    -0.767000000     1.268000000    -1.995000000
H    -0.638000000     2.242000000    -2.460000000
C    -0.226000000     1.081000000    -0.752000000
H     0.308000000     1.875000000    -0.236000000
C    -0.326000000    -0.146000000    -0.094000000
H     0.068000000    -0.271000000     0.933000000
C    -0.878000000    -1.207000000    -0.766000000
H    -0.878000000    -2.132000000    -0.195000000
C    -1.456000000    -1.084000000    -2.018000000
H    -2.006000000    -1.921000000    -2.440000000
C    -1.462000000     0.211000000    -2.598000000
C    -2.125000000     0.427000000    -3.949000000
O    -2.761000000    -0.421000000    -4.458000000
O    -2.152000000     1.530000000    -4.387000000
O    -5.833000000     2.101000000    -1.769000000
H    -5.133000000     2.637000000    -2.142000000
H    -5.385000000     1.333000000    -1.416000000
O    -7.972000000    -1.223000000    -4.415000000
H    -8.921000000    -1.093000000    -4.427000000
H    -7.729000000    -1.293000000    -5.338000000
O    -3.235000000    -2.958000000    -5.128000000
H    -2.359000000    -3.317000000    -4.982000000
H    -3.150000000    -2.028000000    -4.922000000
O    -4.047000000     3.569000000    -3.218000000
H    -3.383000000     3.027000000    -3.643000000
H    -3.754000000     4.468000000    -3.365000000
O    -3.786000000     0.601000000    -0.547000000
H    -3.598000000     0.583000000     0.391000000
H    -2.934000000     0.481000000    -0.965000000
O    -4.262000000     1.902000000    -6.092000000
H    -3.678000000     1.492000000    -5.453000000
H    -4.942000000     1.247000000    -6.251000000
O    -0.526000000     5.472000000    -7.567000000
H    -0.939000000     5.037000000    -6.820000000
H    -1.211000000     5.502000000    -8.235000000
O    -4.349000000     4.126000000    -7.853000000
H    -4.633000000     3.371000000    -7.337000000
H    -4.543000000     3.883000000    -8.758000000
O    -1.660000000    -0.713000000    -7.020000000
H    -1.910000000    -0.677000000    -6.096000000
H    -1.809000000     0.175000000    -7.343000000
O    -6.099000000     4.292000000    -4.899000000
H    -6.593000000     3.492000000    -4.716000000
H    -5.296000000     4.200000000    -4.387000000
O    -7.298000000    -1.051000000    -1.697000000
H    -6.360000000    -1.010000000    -1.883000000
H    -7.711000000    -1.091000000    -2.560000000
O    -0.661000000     1.620000000    -7.802000000
H     0.096000000     1.204000000    -7.389000000
H    -0.816000000     2.408000000    -7.281000000
O    -7.144000000     1.404000000    -4.260000000
H    -7.221000000     0.453000000    -4.179000000
H    -6.767000000     1.686000000    -3.427000000
O    -3.570000000     6.350000000    -4.142000000
H    -4.252000000     7.016000000    -4.049000000
H    -2.843000000     6.809000000    -4.562000000
O    -1.907000000    -3.355000000    -7.788000000
H    -2.836000000    -3.205000000    -7.613000000
H    -1.459000000    -2.647000000    -7.325000000
O    -4.864000000    -5.313000000    -5.536000000
H    -4.122000000    -5.881000000    -5.740000000
H    -4.488000000    -4.434000000    -5.491000000
O    -1.665000000     0.777000000   -10.722000000
H    -1.765000000     1.023000000    -9.802000000
H    -2.354000000     0.131000000   -10.873000000
O    -1.737000000     3.838000000    -5.789000000
H    -1.682000000     3.040000000    -5.263000000
H    -2.650000000     3.875000000    -6.074000000
O    -5.002000000    -1.293000000    -3.140000000
H    -5.086000000    -2.092000000    -3.660000000
H    -4.331000000    -0.782000000    -3.594000000
