215
-1458.28397
C    -3.863000000    -0.168000000     2.810000000
H    -3.497000000     0.754000000     3.253000000
C    -3.029000000    -1.288000000     2.788000000
C    -3.477000000    -2.454000000     2.082000000
H    -2.849000000    -3.316000000     1.867000000
C    -1.636000000    -1.157000000     3.374000000
O    -1.611000000    -0.240000000     4.536000000
H    -0.971000000    -0.687000000     2.635000000
O    -1.114000000    -2.460000000     3.806000000
C     0.144000000    -2.780000000     3.440000000
C     0.311000000    -3.699000000     2.390000000
H    -0.470000000    -4.166000000     1.795000000
C     1.576000000    -3.961000000     1.850000000
O     1.660000000    -4.824000000     0.787000000
C     2.689000000    -3.402000000     2.410000000
C     4.139000000    -3.478000000     1.847000000
H     4.794000000    -3.162000000     2.662000000
C     4.246000000    -2.494000000     0.712000000
C     4.936000000    -1.274000000     0.862000000
H     5.361000000    -0.965000000     1.814000000
H     4.464000000    -4.398000000     1.357000000
C     2.511000000    -2.596000000     3.511000000
H     3.355000000    -2.145000000     4.027000000
C     1.273000000    -2.247000000     4.001000000
C     1.135000000    -1.293000000     5.147000000
H     2.022000000    -1.273000000     5.784000000
H     0.277000000    -1.559000000     5.767000000
C     0.776000000     0.165000000     4.786000000
C     1.904000000     0.900000000     4.456000000
H     2.961000000     0.649000000     4.492000000
C    -0.562000000     0.595000000     4.650000000
C    -0.753000000     1.926000000     4.347000000
H    -1.721000000     2.366000000     4.120000000
C     0.323000000     2.746000000     4.120000000
O     0.042000000     3.918000000     3.582000000
C     0.081000000     3.966000000     2.097000000
C    -1.094000000     4.822000000     1.577000000
C    -0.951000000     5.492000000     0.413000000
H     0.038000000     5.479000000    -0.038000000
C    -2.329000000     4.832000000     2.213000000
H    -2.369000000     4.258000000     3.135000000
O     1.347000000     4.589000000     1.782000000
H     0.025000000     2.947000000     1.688000000
C     1.638000000     2.262000000     4.118000000
C     2.799000000     3.211000000     3.802000000
H     3.651000000     2.904000000     4.412000000
H     2.486000000     4.219000000     4.082000000
C     3.178000000     3.139000000     2.309000000
C     4.210000000     2.269000000     1.880000000
H     4.796000000     1.745000000     2.630000000
C     2.386000000     3.833000000     1.375000000
C     2.519000000     3.558000000     0.049000000
H     1.927000000     4.150000000    -0.644000000
C     3.484000000     2.623000000    -0.348000000
O     3.554000000     2.355000000    -1.731000000
C     3.113000000     1.154000000    -2.328000000
C     2.203000000     1.285000000    -3.604000000
C     1.421000000     2.489000000    -3.722000000
H     1.650000000     3.358000000    -3.110000000
C     1.938000000     0.231000000    -4.486000000
H     2.501000000    -0.680000000    -4.299000000
O     4.272000000     0.246000000    -2.491000000
H     2.463000000     0.649000000    -1.598000000
C     4.391000000     1.984000000     0.533000000
C     5.528000000     1.013000000     0.096000000
H     6.504000000     0.978000000     0.584000000
H     5.852000000     1.457000000    -0.848000000
C     4.976000000    -0.331000000    -0.205000000
C     4.507000000    -0.730000000    -1.498000000
C     3.921000000    -1.986000000    -1.647000000
H     3.449000000    -2.303000000    -2.574000000
C     3.846000000    -2.858000000    -0.585000000
O     3.265000000    -4.109000000    -0.753000000
C     1.857000000    -4.167000000    -0.474000000
H     1.419000000    -3.158000000    -0.451000000
C     1.151000000    -4.923000000    -1.578000000
C    -0.156000000    -5.354000000    -1.379000000
H    -0.652000000    -5.312000000    -0.413000000
C     1.603000000    -4.941000000    -2.891000000
H     2.628000000    -4.690000000    -3.151000000
C     0.776000000    -5.397000000    -3.914000000
O     1.283000000    -5.431000000    -5.193000000
C    -0.528000000    -5.792000000    -3.702000000
H    -1.124000000    -6.126000000    -4.547000000
C    -1.004000000    -5.729000000    -2.410000000
O    -2.356000000    -6.087000000    -2.182000000
C    -3.096000000    -5.935000000    -1.046000000
C    -3.730000000    -4.777000000    -0.649000000
H    -3.555000000    -3.836000000    -1.164000000
C    -3.127000000    -7.010000000    -0.136000000
H    -2.731000000    -7.948000000    -0.517000000
C    -3.785000000    -7.041000000     1.077000000
H    -3.968000000    -7.969000000     1.614000000
C    -4.512000000    -5.903000000     1.331000000
H    -5.088000000    -5.842000000     2.251000000
C    -4.509000000    -4.776000000     0.517000000
O    -5.207000000    -3.637000000     0.838000000
C    -4.786000000    -2.587000000     1.649000000
C    -5.671000000    -1.500000000     1.814000000
H    -6.639000000    -1.575000000     1.326000000
C    -5.162000000    -0.316000000     2.328000000
O    -6.040000000     0.746000000     2.336000000
C    -5.778000000     1.979000000     3.014000000
C    -5.146000000     3.050000000     2.383000000
H    -4.741000000     3.033000000     1.374000000
C    -6.277000000     2.219000000     4.313000000
H    -6.911000000     1.459000000     4.762000000
C    -6.288000000     3.501000000     4.905000000
H    -6.677000000     3.714000000     5.897000000
C    -5.807000000     4.571000000     4.205000000
H    -5.754000000     5.534000000     4.707000000
C    -5.118000000     4.362000000     2.983000000
O    -4.634000000     5.390000000     2.256000000
C    -3.410000000     5.466000000     1.628000000
C    -3.318000000     6.124000000     0.397000000
H    -4.199000000     6.566000000    -0.061000000
C    -2.093000000     6.178000000    -0.199000000
O    -2.017000000     6.725000000    -1.477000000
C    -1.040000000     6.335000000    -2.367000000
C    -1.113000000     5.186000000    -3.138000000
H    -1.834000000     4.435000000    -2.825000000
C    -0.117000000     7.313000000    -2.754000000
H    -0.027000000     8.252000000    -2.213000000
C     0.903000000     7.030000000    -3.638000000
H     1.593000000     7.840000000    -3.859000000
C     0.904000000     5.851000000    -4.291000000
H     1.649000000     5.644000000    -5.056000000
C    -0.111000000     4.944000000    -4.091000000
O    -0.226000000     3.776000000    -4.894000000
C     0.505000000     2.579000000    -4.765000000
C     0.289000000     1.548000000    -5.669000000
H    -0.531000000     1.602000000    -6.380000000
C     1.030000000     0.409000000    -5.522000000
O     0.553000000    -0.669000000    -6.268000000
C     1.162000000    -1.939000000    -6.455000000
C     2.148000000    -2.033000000    -7.463000000
H     2.353000000    -1.147000000    -8.059000000
C     2.777000000    -3.238000000    -7.750000000
H     3.489000000    -3.339000000    -8.565000000
C     2.430000000    -4.437000000    -6.988000000
H     2.861000000    -5.419000000    -7.165000000
C     1.573000000    -4.297000000    -5.906000000
C     0.929000000    -3.046000000    -5.654000000
H     0.218000000    -3.008000000    -4.832000000
C    -1.020000000     0.446000000    -2.066000000
H    -1.389000000     1.014000000    -2.917000000
C    -0.398000000     0.940000000    -0.964000000
H    -0.110000000     1.977000000    -1.118000000
C    -0.117000000     0.123000000     0.090000000
H     0.452000000     0.515000000     0.905000000
C    -0.438000000    -1.208000000     0.044000000
H    -0.165000000    -1.907000000     0.831000000
C    -1.077000000    -1.727000000    -1.073000000
H    -1.183000000    -2.809000000    -1.081000000
C    -1.437000000    -0.875000000    -2.084000000
C    -2.147000000    -1.367000000    -3.281000000
O    -2.172000000    -2.541000000    -3.513000000
O    -2.888000000    -0.634000000    -3.892000000
O    -6.043000000     1.296000000    -5.751000000
H    -5.208000000     0.993000000    -6.109000000
H    -5.933000000     2.242000000    -5.653000000
O    -8.184000000    -2.542000000    -0.407000000
H    -7.661000000    -1.809000000    -0.731000000
H    -9.091000000    -2.253000000    -0.510000000
O    -3.388000000     3.622000000    -4.608000000
H    -3.860000000     3.342000000    -3.824000000
H    -3.224000000     4.555000000    -4.468000000
O     0.522000000    -0.092000000    -9.536000000
H     0.125000000    -0.490000000    -8.761000000
H     0.852000000    -0.834000000   -10.043000000
O    -3.152000000     1.543000000     0.253000000
H    -3.473000000     0.927000000    -0.405000000
H    -2.325000000     1.166000000     0.552000000
O    -5.895000000    -0.816000000    -7.671000000
H    -5.914000000    -1.360000000    -6.883000000
H    -6.049000000     0.073000000    -7.352000000
O    -6.018000000    -6.406000000    -2.704000000
H    -5.505000000    -5.626000000    -2.915000000
H    -6.734000000    -6.401000000    -3.339000000
O    -2.242000000    -2.036000000    -6.766000000
H    -2.368000000    -1.758000000    -5.859000000
H    -3.128000000    -2.186000000    -7.096000000
O    -7.390000000    -2.252000000    -4.198000000
H    -6.560000000    -2.200000000    -4.672000000
H    -7.254000000    -1.716000000    -3.417000000
O    -4.815000000    -2.008000000    -5.365000000
H    -4.758000000    -2.939000000    -5.148000000
H    -4.161000000    -1.591000000    -4.804000000
O    -4.670000000     0.537000000    -2.272000000
H    -4.451000000     1.385000000    -2.656000000
H    -4.131000000    -0.091000000    -2.753000000
O    -2.595000000     0.316000000    -8.163000000
H    -2.864000000     0.508000000    -7.264000000
H    -2.117000000    -0.510000000    -8.098000000
O    -7.242000000    -0.434000000    -1.876000000
H    -7.972000000     0.178000000    -1.968000000
H    -6.461000000     0.105000000    -2.004000000
O    -3.783000000    -5.922000000    -7.159000000
H    -3.960000000    -5.077000000    -7.570000000
H    -4.580000000    -6.431000000    -7.304000000
O    -4.327000000     3.372000000    -1.919000000
H    -4.031000000     3.120000000    -1.044000000
H    -5.192000000     3.756000000    -1.777000000
O    -0.790000000    -4.463000000    -7.787000000
H    -0.052000000    -3.853000000    -7.809000000
H    -1.446000000    -4.025000000    -7.244000000
O    -3.409000000     1.213000000    -5.604000000
H    -2.952000000     1.902000000    -5.122000000
H    -3.394000000     0.458000000    -5.016000000
O    -4.058000000    -4.440000000    -4.179000000
H    -3.793000000    -5.281000000    -4.552000000
H    -3.237000000    -3.965000000    -4.054000000
O    -4.903000000    -3.093000000    -8.624000000
H    -5.281000000    -3.280000000    -9.484000000
H    -5.238000000    -2.225000000    -8.399000000
