215
-1502.97986
C    -4.485000000    -1.300000000     2.593000000
H    -4.368000000    -0.386000000     3.170000000
C    -3.470000000    -2.316000000     2.512000000
C    -3.774000000    -3.447000000     1.786000000
H    -2.999000000    -4.207000000     1.721000000
C    -2.092000000    -2.171000000     3.196000000
O    -2.208000000    -1.167000000     4.254000000
H    -1.503000000    -1.616000000     2.452000000
O    -1.458000000    -3.333000000     3.606000000
C    -0.087000000    -3.507000000     3.356000000
C     0.352000000    -4.206000000     2.231000000
H    -0.394000000    -4.810000000     1.720000000
C     1.714000000    -4.230000000     1.865000000
O     2.053000000    -4.806000000     0.638000000
C     2.607000000    -3.386000000     2.578000000
C     4.060000000    -3.243000000     2.115000000
H     4.722000000    -3.005000000     2.950000000
C     4.244000000    -2.150000000     1.060000000
C     4.517000000    -0.845000000     1.456000000
H     4.451000000    -0.629000000     2.519000000
H     4.338000000    -4.225000000     1.727000000
C     2.181000000    -2.678000000     3.715000000
H     2.888000000    -2.031000000     4.228000000
C     0.822000000    -2.667000000     4.074000000
C     0.369000000    -1.761000000     5.225000000
H     1.155000000    -1.604000000     5.966000000
H    -0.476000000    -2.194000000     5.765000000
C     0.000000000    -0.399000000     4.737000000
C     0.987000000     0.634000000     4.730000000
H     1.992000000     0.379000000     5.057000000
C    -1.272000000    -0.158000000     4.211000000
C    -1.677000000     1.009000000     3.703000000
H    -2.711000000     1.206000000     3.432000000
C    -0.732000000     2.043000000     3.697000000
O    -1.060000000     3.294000000     3.217000000
C    -0.602000000     3.610000000     1.839000000
C    -1.828000000     4.308000000     1.128000000
C    -1.517000000     4.985000000    -0.020000000
H    -0.461000000     5.053000000    -0.269000000
C    -3.187000000     3.922000000     1.329000000
H    -3.528000000     3.314000000     2.163000000
O     0.536000000     4.487000000     1.919000000
H    -0.327000000     2.703000000     1.279000000
C     0.579000000     1.881000000     4.219000000
C     1.627000000     3.001000000     4.168000000
H     2.468000000     2.822000000     4.840000000
H     1.228000000     3.958000000     4.510000000
C     2.289000000     3.089000000     2.765000000
C     3.435000000     2.411000000     2.552000000
H     3.887000000     1.771000000     3.306000000
C     1.741000000     3.867000000     1.753000000
C     2.398000000     3.994000000     0.552000000
H     2.021000000     4.606000000    -0.263000000
C     3.563000000     3.262000000     0.335000000
O     4.051000000     3.151000000    -0.904000000
C     3.530000000     1.942000000    -1.532000000
C     2.892000000     2.282000000    -2.873000000
C     2.388000000     3.526000000    -3.145000000
H     2.514000000     4.408000000    -2.524000000
C     2.490000000     1.225000000    -3.680000000
H     2.606000000     0.207000000    -3.316000000
O     4.485000000     0.843000000    -1.797000000
H     2.676000000     1.557000000    -0.955000000
C     4.015000000     2.367000000     1.322000000
C     5.174000000     1.462000000     1.074000000
H     5.739000000     1.290000000     1.993000000
H     5.928000000     1.852000000     0.387000000
C     4.716000000     0.163000000     0.541000000
C     4.535000000    -0.113000000    -0.829000000
C     4.193000000    -1.385000000    -1.240000000
H     3.935000000    -1.554000000    -2.283000000
C     4.115000000    -2.437000000    -0.310000000
O     3.720000000    -3.737000000    -0.712000000
C     2.276000000    -3.902000000    -0.469000000
H     1.887000000    -2.891000000    -0.281000000
C     1.622000000    -4.443000000    -1.677000000
C     0.322000000    -4.928000000    -1.557000000
H    -0.050000000    -5.143000000    -0.558000000
C     2.115000000    -4.244000000    -2.935000000
H     3.096000000    -3.803000000    -3.090000000
C     1.367000000    -4.517000000    -4.103000000
O     1.995000000    -4.361000000    -5.331000000
C     0.053000000    -4.971000000    -3.965000000
H    -0.602000000    -5.193000000    -4.803000000
C    -0.415000000    -5.262000000    -2.699000000
O    -1.715000000    -5.532000000    -2.622000000
C    -2.416000000    -5.937000000    -1.520000000
C    -3.346000000    -5.116000000    -0.980000000
H    -3.349000000    -4.059000000    -1.230000000
C    -2.327000000    -7.304000000    -1.092000000
H    -1.421000000    -7.843000000    -1.360000000
C    -3.248000000    -7.753000000    -0.153000000
H    -3.215000000    -8.796000000     0.152000000
C    -4.282000000    -6.949000000     0.359000000
H    -4.988000000    -7.250000000     1.129000000
C    -4.228000000    -5.621000000     0.014000000
O    -5.226000000    -4.844000000     0.474000000
C    -4.988000000    -3.683000000     1.164000000
C    -5.932000000    -2.628000000     1.168000000
H    -6.921000000    -2.755000000     0.735000000
C    -5.660000000    -1.476000000     1.893000000
O    -6.689000000    -0.521000000     1.990000000
C    -6.436000000     0.847000000     2.261000000
C    -6.142000000     1.716000000     1.224000000
H    -5.963000000     1.318000000     0.229000000
C    -6.633000000     1.314000000     3.538000000
H    -6.886000000     0.588000000     4.307000000
C    -6.358000000     2.677000000     3.841000000
H    -6.509000000     3.052000000     4.850000000
C    -5.881000000     3.500000000     2.839000000
H    -5.693000000     4.527000000     3.141000000
C    -5.815000000     3.080000000     1.530000000
O    -5.435000000     3.895000000     0.480000000
C    -4.154000000     4.368000000     0.401000000
C    -3.818000000     5.186000000    -0.685000000
H    -4.621000000     5.555000000    -1.317000000
C    -2.512000000     5.453000000    -0.938000000
O    -2.172000000     6.401000000    -1.902000000
C    -0.888000000     6.599000000    -2.297000000
C    -0.431000000     5.713000000    -3.266000000
H    -0.990000000     4.802000000    -3.466000000
C    -0.094000000     7.588000000    -1.761000000
H    -0.387000000     8.261000000    -0.959000000
C     1.125000000     7.849000000    -2.358000000
H     1.734000000     8.677000000    -2.003000000
C     1.665000000     6.995000000    -3.376000000
H     2.649000000     7.235000000    -3.773000000
C     0.818000000     5.950000000    -3.824000000
O     1.397000000     5.092000000    -4.731000000
C     1.805000000     3.813000000    -4.387000000
C     1.477000000     2.779000000    -5.273000000
H     1.002000000     2.994000000    -6.227000000
C     1.860000000     1.504000000    -4.927000000
O     1.368000000     0.425000000    -5.646000000
C     2.101000000    -0.722000000    -5.872000000
C     3.378000000    -0.623000000    -6.447000000
H     3.878000000     0.331000000    -6.591000000
C     4.027000000    -1.793000000    -6.850000000
H     4.909000000    -1.654000000    -7.472000000
C     3.506000000    -2.991000000    -6.489000000
H     4.120000000    -3.855000000    -6.731000000
C     2.316000000    -3.096000000    -5.846000000
C     1.577000000    -1.942000000    -5.550000000
H     0.655000000    -1.930000000    -4.975000000
C    -0.891000000     0.746000000    -2.562000000
H    -1.197000000     1.276000000    -3.460000000
C    -0.166000000     1.368000000    -1.522000000
H     0.145000000     2.409000000    -1.539000000
C     0.275000000     0.629000000    -0.394000000
H     0.877000000     1.107000000     0.420000000
C     0.036000000    -0.732000000    -0.328000000
H     0.262000000    -1.233000000     0.609000000
C    -0.659000000    -1.326000000    -1.366000000
H    -0.994000000    -2.347000000    -1.206000000
C    -1.098000000    -0.624000000    -2.481000000
C    -2.034000000    -1.251000000    -3.571000000
O    -2.511000000    -2.372000000    -3.358000000
O    -2.462000000    -0.623000000    -4.529000000
O    -5.770000000     0.225000000    -3.210000000
H    -5.252000000     0.275000000    -4.013000000
H    -5.619000000     1.064000000    -2.774000000
O    -6.327000000    -3.189000000    -6.008000000
H    -6.700000000    -2.718000000    -5.263000000
H    -7.042000000    -3.243000000    -6.641000000
O    -4.605000000     2.575000000    -4.866000000
H    -4.526000000     2.475000000    -3.917000000
H    -5.479000000     2.943000000    -4.996000000
O    -3.394000000     0.799000000    -0.218000000
H    -3.873000000    -0.021000000    -0.343000000
H    -2.474000000     0.556000000    -0.322000000
O    -4.353000000     1.490000000    -7.934000000
H    -5.134000000     1.370000000    -7.394000000
H    -3.667000000     1.737000000    -7.313000000
O    -6.702000000     0.452000000    -6.897000000
H    -6.046000000    -0.175000000    -6.592000000
H    -7.327000000    -0.077000000    -7.393000000
O    -5.498000000    -5.449000000    -4.949000000
H    -5.894000000    -5.618000000    -4.094000000
H    -5.642000000    -4.515000000    -5.099000000
O     0.029000000    -2.541000000    -8.850000000
H    -0.291000000    -2.194000000    -8.017000000
H     0.581000000    -1.843000000    -9.203000000
O    -6.670000000    -3.724000000    -2.013000000
H    -5.965000000    -3.285000000    -1.537000000
H    -6.408000000    -4.644000000    -2.034000000
O    -2.851000000    -0.987000000    -9.246000000
H    -2.280000000    -1.266000000    -8.530000000
H    -3.280000000    -0.198000000    -8.916000000
O    -1.568000000    -1.768000000    -6.692000000
H    -2.095000000    -2.536000000    -6.468000000
H    -1.733000000    -1.149000000    -5.981000000
O    -7.658000000    -1.594000000    -4.260000000
H    -7.791000000    -2.247000000    -3.572000000
H    -7.158000000    -0.897000000    -3.836000000
O    -4.620000000    -0.971000000    -5.903000000
H    -4.816000000    -1.902000000    -6.014000000
H    -3.796000000    -0.956000000    -5.417000000
O    -4.755000000    -1.798000000    -1.557000000
H    -4.199000000    -2.227000000    -2.208000000
H    -5.352000000    -1.255000000    -2.073000000
O    -0.222000000     1.798000000    -8.279000000
H    -0.591000000     1.451000000    -7.467000000
H    -0.908000000     2.366000000    -8.631000000
O    -3.368000000    -4.921000000    -8.550000000
H    -3.608000000    -4.491000000    -7.730000000
H    -4.188000000    -4.971000000    -9.043000000
O    -4.730000000     2.730000000    -2.265000000
H    -5.226000000     3.481000000    -1.941000000
H    -4.306000000     2.369000000    -1.486000000
O    -2.236000000     1.547000000    -6.103000000
H    -2.924000000     2.028000000    -5.643000000
H    -2.237000000     0.680000000    -5.696000000
O    -3.102000000    -3.768000000    -5.642000000
H    -3.480000000    -4.527000000    -5.197000000
H    -2.905000000    -3.152000000    -4.937000000
