215
-1426.37705
C    -4.432000000    -0.676000000     3.542000000
H    -4.166000000     0.064000000     4.292000000
C    -3.460000000    -1.651000000     3.205000000
C    -3.869000000    -2.663000000     2.299000000
H    -3.235000000    -3.470000000     1.942000000
C    -2.031000000    -1.537000000     3.689000000
O    -1.850000000    -0.615000000     4.743000000
H    -1.570000000    -1.128000000     2.778000000
O    -1.505000000    -2.857000000     3.922000000
C    -0.168000000    -3.083000000     3.487000000
C     0.042000000    -3.863000000     2.392000000
H    -0.841000000    -4.172000000     1.840000000
C     1.313000000    -4.027000000     1.802000000
O     1.393000000    -4.717000000     0.539000000
C     2.418000000    -3.405000000     2.457000000
C     3.760000000    -3.545000000     1.913000000
H     4.563000000    -3.468000000     2.648000000
C     4.087000000    -2.607000000     0.767000000
C     4.738000000    -1.388000000     1.062000000
H     4.988000000    -1.230000000     2.108000000
H     3.809000000    -4.585000000     1.582000000
C     2.248000000    -2.690000000     3.662000000
H     3.080000000    -2.170000000     4.129000000
C     0.929000000    -2.541000000     4.167000000
C     0.808000000    -1.592000000     5.425000000
H     1.683000000    -1.596000000     6.078000000
H    -0.028000000    -1.890000000     6.061000000
C     0.582000000    -0.184000000     4.907000000
C     1.593000000     0.714000000     4.667000000
H     2.638000000     0.476000000     4.851000000
C    -0.754000000     0.220000000     4.704000000
C    -1.014000000     1.482000000     4.138000000
H    -2.013000000     1.668000000     3.752000000
C    -0.042000000     2.410000000     3.989000000
O    -0.345000000     3.534000000     3.296000000
C    -0.024000000     3.607000000     1.916000000
C    -1.221000000     4.280000000     1.101000000
C    -1.036000000     5.066000000    -0.007000000
H    -0.027000000     5.321000000    -0.318000000
C    -2.583000000     3.923000000     1.438000000
H    -2.826000000     3.198000000     2.211000000
O     1.197000000     4.266000000     1.674000000
H    -0.067000000     2.624000000     1.424000000
C     1.292000000     2.002000000     4.184000000
C     2.552000000     2.834000000     3.912000000
H     3.333000000     2.417000000     4.552000000
H     2.608000000     3.839000000     4.335000000
C     2.957000000     2.728000000     2.466000000
C     3.975000000     1.859000000     2.091000000
H     4.406000000     1.215000000     2.853000000
C     2.304000000     3.500000000     1.481000000
C     2.754000000     3.425000000     0.155000000
H     2.194000000     3.976000000    -0.596000000
C     3.821000000     2.640000000    -0.115000000
O     4.059000000     2.498000000    -1.461000000
C     3.438000000     1.389000000    -2.063000000
C     2.668000000     1.799000000    -3.477000000
C     2.125000000     3.064000000    -3.765000000
H     2.156000000     3.916000000    -3.090000000
C     2.414000000     0.698000000    -4.326000000
H     2.887000000    -0.263000000    -4.144000000
O     4.433000000     0.312000000    -2.186000000
H     2.684000000     1.055000000    -1.336000000
C     4.492000000     1.934000000     0.839000000
C     5.550000000     0.964000000     0.435000000
H     6.211000000     0.661000000     1.249000000
H     6.050000000     1.269000000    -0.486000000
C     4.831000000    -0.373000000     0.071000000
C     4.429000000    -0.638000000    -1.247000000
C     3.807000000    -1.863000000    -1.536000000
H     3.342000000    -2.033000000    -2.504000000
C     3.770000000    -2.841000000    -0.578000000
O     3.085000000    -3.964000000    -0.919000000
C     1.662000000    -3.959000000    -0.613000000
H     1.245000000    -2.978000000    -0.343000000
C     0.905000000    -4.556000000    -1.820000000
C    -0.504000000    -4.881000000    -1.685000000
H    -0.851000000    -4.943000000    -0.657000000
C     1.492000000    -4.616000000    -3.101000000
H     2.535000000    -4.331000000    -3.213000000
C     0.651000000    -4.895000000    -4.131000000
O     1.189000000    -4.880000000    -5.428000000
C    -0.731000000    -5.127000000    -4.008000000
H    -1.300000000    -5.393000000    -4.896000000
C    -1.318000000    -5.176000000    -2.761000000
O    -2.612000000    -5.298000000    -2.626000000
C    -3.242000000    -5.480000000    -1.423000000
C    -4.094000000    -4.487000000    -1.020000000
H    -4.467000000    -3.724000000    -1.699000000
C    -2.985000000    -6.530000000    -0.600000000
H    -2.242000000    -7.218000000    -0.995000000
C    -3.743000000    -6.764000000     0.592000000
H    -3.749000000    -7.743000000     1.064000000
C    -4.486000000    -5.730000000     1.070000000
H    -4.997000000    -5.800000000     2.027000000
C    -4.633000000    -4.567000000     0.288000000
O    -5.496000000    -3.544000000     0.699000000
C    -5.136000000    -2.573000000     1.686000000
C    -6.020000000    -1.487000000     1.983000000
H    -6.977000000    -1.411000000     1.474000000
C    -5.726000000    -0.608000000     2.992000000
O    -6.594000000     0.431000000     3.285000000
C    -6.165000000     1.729000000     3.403000000
C    -5.813000000     2.331000000     2.159000000
H    -5.876000000     1.769000000     1.230000000
C    -6.098000000     2.325000000     4.601000000
H    -6.438000000     1.789000000     5.483000000
C    -5.692000000     3.651000000     4.650000000
H    -5.604000000     4.241000000     5.558000000
C    -5.329000000     4.350000000     3.446000000
H    -4.901000000     5.349000000     3.426000000
C    -5.417000000     3.656000000     2.223000000
O    -4.944000000     4.154000000     1.023000000
C    -3.610000000     4.504000000     0.732000000
C    -3.357000000     5.341000000    -0.351000000
H    -4.152000000     5.740000000    -0.976000000
C    -2.039000000     5.676000000    -0.679000000
O    -1.776000000     6.598000000    -1.614000000
C    -0.716000000     6.460000000    -2.461000000
C    -0.692000000     5.392000000    -3.338000000
H    -1.524000000     4.702000000    -3.223000000
C     0.178000000     7.465000000    -2.503000000
H     0.082000000     8.331000000    -1.854000000
C     1.143000000     7.445000000    -3.513000000
H     1.828000000     8.259000000    -3.732000000
C     1.209000000     6.310000000    -4.366000000
H     2.048000000     6.269000000    -5.056000000
C     0.327000000     5.306000000    -4.294000000
O     0.475000000     4.217000000    -5.130000000
C     1.253000000     3.156000000    -4.849000000
C     1.043000000     2.106000000    -5.725000000
H     0.278000000     2.222000000    -6.488000000
C     1.642000000     0.840000000    -5.466000000
O     1.426000000    -0.186000000    -6.326000000
C     1.948000000    -1.470000000    -6.237000000
C     3.298000000    -1.559000000    -6.578000000
H     3.875000000    -0.675000000    -6.836000000
C     3.904000000    -2.804000000    -6.619000000
H     4.952000000    -2.755000000    -6.905000000
C     3.169000000    -3.887000000    -6.229000000
H     3.765000000    -4.796000000    -6.202000000
C     1.843000000    -3.770000000    -5.898000000
C     1.177000000    -2.584000000    -5.881000000
H     0.097000000    -2.513000000    -5.774000000
C    -1.189000000     1.121000000    -2.078000000
H    -1.181000000     1.935000000    -2.799000000
C    -0.557000000     1.262000000    -0.837000000
H    -0.014000000     2.167000000    -0.578000000
C    -0.720000000     0.259000000     0.100000000
H    -0.397000000     0.372000000     1.135000000
C    -1.392000000    -0.940000000    -0.139000000
H    -1.593000000    -1.600000000     0.701000000
C    -1.861000000    -1.147000000    -1.434000000
H    -2.291000000    -2.104000000    -1.718000000
C    -1.773000000    -0.106000000    -2.457000000
C    -2.365000000    -0.346000000    -3.830000000
O    -3.201000000    -1.206000000    -3.907000000
O    -2.104000000     0.428000000    -4.726000000
O    -6.864000000    -1.257000000    -6.330000000
H    -6.492000000    -1.383000000    -5.457000000
H    -7.048000000    -0.318000000    -6.378000000
O    -7.495000000    -4.004000000    -1.810000000
H    -7.054000000    -3.325000000    -2.319000000
H    -8.078000000    -3.523000000    -1.222000000
O    -4.321000000     3.291000000    -8.000000000
H    -3.623000000     3.891000000    -7.739000000
H    -3.919000000     2.729000000    -8.662000000
O    -4.620000000     3.754000000    -3.706000000
H    -4.566000000     3.361000000    -2.835000000
H    -5.370000000     4.347000000    -3.655000000
O    -0.221000000     0.222000000    -9.037000000
H    -0.798000000     0.233000000    -8.273000000
H    -0.765000000    -0.126000000    -9.743000000
O    -4.311000000     1.767000000    -1.376000000
H    -4.794000000     0.941000000    -1.344000000
H    -3.401000000     1.519000000    -1.214000000
O    -2.489000000     5.296000000    -7.201000000
H    -3.337000000     5.647000000    -6.931000000
H    -2.277000000     4.642000000    -6.536000000
O    -3.056000000    -3.126000000    -5.660000000
H    -2.500000000    -2.661000000    -6.285000000
H    -3.296000000    -2.462000000    -5.013000000
O    -5.522000000    -4.301000000    -4.885000000
H    -4.623000000    -4.220000000    -5.202000000
H    -5.709000000    -3.456000000    -4.477000000
O    -5.726000000    -1.828000000    -3.686000000
H    -6.202000000    -1.113000000    -3.264000000
H    -4.828000000    -1.504000000    -3.763000000
O    -2.484000000    -0.406000000    -7.140000000
H    -3.076000000     0.285000000    -7.437000000
H    -2.159000000    -0.096000000    -6.294000000
O    -7.251000000    -0.165000000    -2.015000000
H    -7.965000000    -0.701000000    -1.672000000
H    -7.424000000     0.713000000    -1.675000000
O    -6.561000000     1.488000000    -5.529000000
H    -5.652000000     1.581000000    -5.244000000
H    -6.674000000     2.166000000    -6.196000000
O    -8.555000000     2.112000000    -3.725000000
H    -7.989000000     2.248000000    -2.964000000
H    -7.973000000     1.751000000    -4.394000000
O    -7.188000000     2.346000000    -1.163000000
H    -6.328000000     2.673000000    -0.897000000
H    -7.809000000     2.853000000    -0.641000000
O    -3.501000000    -4.863000000    -7.719000000
H    -3.433000000    -4.216000000    -7.017000000
H    -4.207000000    -4.539000000    -8.277000000
O     1.480000000    -2.356000000    -9.035000000
H     1.190000000    -1.530000000    -8.647000000
H     0.969000000    -3.026000000    -8.583000000
O    -2.568000000     3.134000000    -5.444000000
H    -2.458000000     2.223000000    -5.169000000
H    -3.150000000     3.514000000    -4.786000000
O    -5.759000000    -2.956000000    -8.320000000
H    -6.275000000    -2.329000000    -7.813000000
H    -6.255000000    -3.074000000    -9.130000000
