215
-1438.23503
C    -4.015000000    -1.410000000     1.939000000
H    -3.750000000    -0.366000000     2.086000000
C    -3.167000000    -2.375000000     2.475000000
C    -3.392000000    -3.706000000     2.040000000
H    -2.730000000    -4.539000000     2.267000000
C    -1.869000000    -2.035000000     3.242000000
O    -2.155000000    -1.175000000     4.375000000
H    -1.164000000    -1.549000000     2.552000000
O    -1.097000000    -3.164000000     3.717000000
C     0.258000000    -3.142000000     3.572000000
C     0.629000000    -3.862000000     2.436000000
H    -0.077000000    -4.487000000     1.895000000
C     1.947000000    -3.750000000     2.003000000
O     2.235000000    -4.366000000     0.796000000
C     2.914000000    -3.108000000     2.690000000
C     4.342000000    -2.933000000     2.076000000
H     5.012000000    -2.686000000     2.902000000
C     4.467000000    -1.734000000     1.101000000
C     4.818000000    -0.466000000     1.559000000
H     5.205000000    -0.322000000     2.565000000
H     4.690000000    -3.834000000     1.565000000
C     2.482000000    -2.386000000     3.839000000
H     3.238000000    -1.789000000     4.340000000
C     1.132000000    -2.372000000     4.287000000
C     0.621000000    -1.544000000     5.461000000
H     1.473000000    -1.293000000     6.096000000
H    -0.072000000    -2.191000000     6.002000000
C     0.010000000    -0.190000000     4.927000000
C     0.902000000     0.851000000     4.785000000
H     1.968000000     0.672000000     4.897000000
C    -1.314000000    -0.086000000     4.500000000
C    -1.761000000     1.118000000     3.917000000
H    -2.707000000     1.249000000     3.397000000
C    -0.863000000     2.210000000     3.990000000
O    -1.304000000     3.373000000     3.373000000
C    -0.898000000     3.668000000     2.040000000
C    -2.053000000     4.267000000     1.177000000
C    -1.812000000     5.204000000     0.164000000
H    -0.779000000     5.463000000    -0.053000000
C    -3.392000000     3.865000000     1.373000000
H    -3.612000000     3.201000000     2.205000000
O     0.204000000     4.652000000     2.193000000
H    -0.406000000     2.735000000     1.731000000
C     0.473000000     2.091000000     4.446000000
C     1.458000000     3.268000000     4.440000000
H     2.314000000     3.119000000     5.103000000
H     0.923000000     4.148000000     4.804000000
C     2.104000000     3.369000000     2.980000000
C     3.297000000     2.719000000     2.679000000
H     3.760000000     2.130000000     3.467000000
C     1.453000000     4.113000000     1.984000000
C     2.032000000     4.133000000     0.707000000
H     1.520000000     4.701000000    -0.065000000
C     3.273000000     3.557000000     0.410000000
O     3.604000000     3.425000000    -0.933000000
C     3.285000000     2.162000000    -1.738000000
C     2.684000000     2.257000000    -3.137000000
C     1.950000000     3.427000000    -3.329000000
H     1.916000000     4.157000000    -2.524000000
C     2.837000000     1.323000000    -4.192000000
H     3.510000000     0.483000000    -4.038000000
O     4.455000000     1.337000000    -1.613000000
H     2.510000000     1.660000000    -1.140000000
C     3.938000000     2.844000000     1.417000000
C     5.212000000     2.045000000     1.164000000
H     5.897000000     2.058000000     2.014000000
H     5.644000000     2.524000000     0.283000000
C     4.900000000     0.640000000     0.666000000
C     4.530000000     0.403000000    -0.684000000
C     4.180000000    -0.894000000    -1.126000000
H     3.901000000    -1.070000000    -2.162000000
C     4.233000000    -2.006000000    -0.258000000
O     3.637000000    -3.176000000    -0.743000000
C     2.315000000    -3.486000000    -0.328000000
H     1.765000000    -2.561000000    -0.100000000
C     1.573000000    -4.097000000    -1.545000000
C     0.580000000    -5.086000000    -1.282000000
H     0.314000000    -5.443000000    -0.291000000
C     1.778000000    -3.677000000    -2.813000000
H     2.514000000    -2.896000000    -2.990000000
C     0.855000000    -4.062000000    -3.777000000
O     0.902000000    -3.522000000    -5.035000000
C    -0.122000000    -4.996000000    -3.528000000
H    -0.757000000    -5.403000000    -4.311000000
C    -0.268000000    -5.518000000    -2.299000000
O    -1.251000000    -6.491000000    -2.201000000
C    -2.066000000    -6.752000000    -1.108000000
C    -2.918000000    -5.749000000    -0.535000000
H    -2.768000000    -4.690000000    -0.730000000
C    -2.136000000    -8.086000000    -0.741000000
H    -1.536000000    -8.810000000    -1.286000000
C    -3.128000000    -8.517000000     0.124000000
H    -3.352000000    -9.560000000     0.334000000
C    -4.057000000    -7.522000000     0.608000000
H    -4.916000000    -7.774000000     1.224000000
C    -3.896000000    -6.221000000     0.308000000
O    -4.793000000    -5.378000000     0.884000000
C    -4.475000000    -4.050000000     1.201000000
C    -5.327000000    -3.049000000     0.828000000
H    -6.275000000    -3.367000000     0.402000000
C    -5.167000000    -1.712000000     1.172000000
O    -5.950000000    -0.710000000     0.637000000
C    -6.113000000     0.530000000     1.287000000
C    -6.045000000     1.782000000     0.587000000
H    -5.641000000     1.931000000    -0.411000000
C    -6.477000000     0.484000000     2.608000000
H    -6.399000000    -0.496000000     3.071000000
C    -6.735000000     1.623000000     3.315000000
H    -6.982000000     1.663000000     4.373000000
C    -6.630000000     2.853000000     2.709000000
H    -6.749000000     3.777000000     3.269000000
C    -6.247000000     2.911000000     1.351000000
O    -5.758000000     4.149000000     0.864000000
C    -4.428000000     4.348000000     0.551000000
C    -4.129000000     5.230000000    -0.464000000
H    -4.931000000     5.707000000    -1.021000000
C    -2.817000000     5.707000000    -0.661000000
O    -2.459000000     6.634000000    -1.651000000
C    -1.319000000     6.688000000    -2.412000000
C    -0.959000000     5.628000000    -3.237000000
H    -1.597000000     4.752000000    -3.329000000
C    -0.424000000     7.748000000    -2.166000000
H    -0.731000000     8.606000000    -1.573000000
C     0.798000000     7.786000000    -2.786000000
H     1.367000000     8.713000000    -2.789000000
C     1.163000000     6.677000000    -3.579000000
H     2.083000000     6.693000000    -4.158000000
C     0.207000000     5.682000000    -3.871000000
O     0.523000000     4.718000000    -4.828000000
C     1.355000000     3.620000000    -4.587000000
C     1.510000000     2.676000000    -5.617000000
H     0.918000000     2.862000000    -6.510000000
C     2.382000000     1.616000000    -5.444000000
O     2.594000000     0.760000000    -6.578000000
C     2.807000000    -0.631000000    -6.431000000
C     3.924000000    -1.283000000    -6.903000000
H     4.688000000    -0.755000000    -7.468000000
C     4.123000000    -2.672000000    -6.603000000
H     4.987000000    -3.262000000    -6.898000000
C     3.180000000    -3.386000000    -5.877000000
H     3.302000000    -4.429000000    -5.597000000
C     1.964000000    -2.755000000    -5.477000000
C     1.846000000    -1.370000000    -5.771000000
H     0.890000000    -0.922000000    -5.511000000
C    -0.675000000     0.677000000    -3.106000000
H    -0.693000000     1.481000000    -3.838000000
C    -0.284000000     1.009000000    -1.823000000
H     0.019000000     2.043000000    -1.681000000
C    -0.354000000     0.097000000    -0.814000000
H     0.080000000     0.458000000     0.126000000
C    -0.858000000    -1.152000000    -1.011000000
H    -0.894000000    -1.820000000    -0.154000000
C    -1.198000000    -1.523000000    -2.335000000
H    -1.628000000    -2.507000000    -2.505000000
C    -1.131000000    -0.643000000    -3.416000000
C    -1.715000000    -0.966000000    -4.776000000
O    -2.203000000    -2.065000000    -5.020000000
O    -1.785000000    -0.097000000    -5.584000000
O    -0.389000000     2.342000000    -9.287000000
H    -0.662000000     1.500000000    -8.922000000
H    -0.470000000     2.230000000   -10.234000000
O    -5.110000000    -3.152000000    -8.350000000
H    -5.705000000    -2.644000000    -8.901000000
H    -5.685000000    -3.641000000    -7.762000000
O    -4.198000000    -0.296000000    -1.731000000
H    -4.030000000     0.626000000    -1.537000000
H    -4.062000000    -0.745000000    -0.896000000
O    -5.300000000     1.340000000    -9.079000000
H    -4.400000000     1.012000000    -9.086000000
H    -5.680000000     1.014000000    -9.895000000
O    -2.543000000     5.440000000    -6.341000000
H    -3.036000000     6.243000000    -6.513000000
H    -3.077000000     4.962000000    -5.707000000
O    -4.237000000     1.272000000    -5.937000000
H    -3.433000000     0.754000000    -5.953000000
H    -4.893000000     0.709000000    -6.348000000
O    -2.692000000    -0.012000000   -10.009000000
H    -2.742000000    -0.706000000   -10.666000000
H    -2.073000000    -0.343000000    -9.358000000
O    -0.492000000    -2.802000000   -10.107000000
H    -0.793000000    -3.222000000    -9.301000000
H    -1.059000000    -3.159000000   -10.790000000
O    -2.849000000    -4.706000000    -5.728000000
H    -2.533000000    -4.494000000    -6.607000000
H    -2.614000000    -3.944000000    -5.199000000
O    -0.698000000    -0.253000000    -7.978000000
H    -0.726000000    -1.210000000    -7.997000000
H    -0.906000000    -0.025000000    -7.072000000
O    -4.848000000    -1.672000000    -4.856000000
H    -5.136000000    -2.538000000    -5.146000000
H    -3.895000000    -1.742000000    -4.800000000
O     2.414000000    -2.908000000    -9.475000000
H     1.502000000    -2.619000000    -9.453000000
H     2.576000000    -3.258000000    -8.599000000
O    -4.018000000     3.639000000    -4.426000000
H    -4.252000000     2.870000000    -4.944000000
H    -4.850000000     4.087000000    -4.272000000
O    -2.053000000    -2.782000000    -7.496000000
H    -1.864000000    -2.530000000    -6.592000000
H    -2.978000000    -2.565000000    -7.617000000
O    -6.045000000    -3.224000000    -2.270000000
H    -6.966000000    -3.201000000    -2.012000000
H    -5.803000000    -2.304000000    -2.379000000
O    -5.721000000    -4.318000000    -4.719000000
H    -5.214000000    -5.095000000    -4.953000000
H    -5.762000000    -4.338000000    -3.763000000
O    -3.165000000     2.203000000    -2.091000000
H    -2.618000000     1.639000000    -2.639000000
H    -3.547000000     2.832000000    -2.702000000
O    -6.327000000     0.121000000    -3.545000000
H    -5.811000000     0.239000000    -2.748000000
H    -5.814000000    -0.488000000    -4.075000000
O    -0.259000000    -5.701000000    -7.216000000
H    -0.385000000    -5.082000000    -6.497000000
H     0.518000000    -6.201000000    -6.968000000
