215
-1420.80598
C    -3.151000000    -1.668000000     2.058000000
H    -3.040000000    -0.600000000     2.225000000
C    -2.341000000    -2.641000000     2.719000000
C    -2.703000000    -3.942000000     2.563000000
H    -2.191000000    -4.716000000     3.129000000
C    -1.122000000    -2.151000000     3.439000000
O    -1.372000000    -1.267000000     4.514000000
H    -0.591000000    -1.585000000     2.660000000
O    -0.182000000    -3.194000000     3.817000000
C     1.102000000    -3.103000000     3.358000000
C     1.403000000    -3.825000000     2.246000000
H     0.600000000    -4.455000000     1.872000000
C     2.668000000    -3.741000000     1.725000000
O     2.850000000    -4.355000000     0.519000000
C     3.510000000    -2.782000000     2.302000000
C     4.837000000    -2.495000000     1.659000000
H     5.602000000    -2.196000000     2.379000000
C     4.706000000    -1.428000000     0.692000000
C     4.956000000    -0.146000000     1.011000000
H     5.263000000     0.141000000     2.013000000
H     5.164000000    -3.347000000     1.059000000
C     3.142000000    -1.984000000     3.406000000
H     3.844000000    -1.264000000     3.817000000
C     1.923000000    -2.170000000     3.943000000
C     1.465000000    -1.357000000     5.161000000
H     2.250000000    -1.225000000     5.908000000
H     0.785000000    -1.966000000     5.759000000
C     0.733000000    -0.094000000     4.840000000
C     1.481000000     1.083000000     4.880000000
H     2.561000000     1.033000000     4.990000000
C    -0.646000000    -0.094000000     4.537000000
C    -1.277000000     1.065000000     4.209000000
H    -2.328000000     1.034000000     3.932000000
C    -0.508000000     2.189000000     4.050000000
O    -1.167000000     3.388000000     3.697000000
C    -0.950000000     3.725000000     2.269000000
C    -2.190000000     4.118000000     1.571000000
C    -2.172000000     5.014000000     0.433000000
H    -1.204000000     5.415000000     0.141000000
C    -3.407000000     3.663000000     2.015000000
H    -3.381000000     3.081000000     2.933000000
O     0.035000000     4.723000000     2.183000000
H    -0.503000000     2.770000000     1.956000000
C     0.847000000     2.270000000     4.366000000
C     1.658000000     3.468000000     4.242000000
H     2.512000000     3.382000000     4.918000000
H     1.077000000     4.288000000     4.668000000
C     2.123000000     3.650000000     2.822000000
C     3.313000000     2.968000000     2.394000000
H     3.974000000     2.455000000     3.088000000
C     1.325000000     4.346000000     1.932000000
C     1.809000000     4.388000000     0.613000000
H     1.211000000     4.842000000    -0.172000000
C     2.914000000     3.681000000     0.217000000
O     3.081000000     3.577000000    -1.158000000
C     2.788000000     2.348000000    -1.844000000
C     1.738000000     2.454000000    -2.976000000
C     1.078000000     3.628000000    -3.332000000
H     1.276000000     4.511000000    -2.729000000
C     1.454000000     1.286000000    -3.682000000
H     1.929000000     0.341000000    -3.432000000
O     4.066000000     1.638000000    -2.071000000
H     2.216000000     1.743000000    -1.125000000
C     3.704000000     2.973000000     1.072000000
C     5.035000000     2.332000000     0.700000000
H     5.571000000     2.409000000     1.649000000
H     5.575000000     2.912000000    -0.051000000
C     4.820000000     0.873000000     0.120000000
C     4.391000000     0.601000000    -1.197000000
C     4.104000000    -0.676000000    -1.566000000
H     3.772000000    -1.008000000    -2.546000000
C     4.215000000    -1.673000000    -0.592000000
O     4.008000000    -2.921000000    -0.999000000
C     2.707000000    -3.507000000    -0.670000000
H     2.084000000    -2.606000000    -0.572000000
C     2.053000000    -4.239000000    -1.829000000
C     0.808000000    -4.857000000    -1.555000000
H     0.506000000    -4.837000000    -0.511000000
C     2.513000000    -4.113000000    -3.118000000
H     3.407000000    -3.542000000    -3.357000000
C     1.691000000    -4.634000000    -4.175000000
O     1.840000000    -4.266000000    -5.533000000
C     0.497000000    -5.262000000    -3.915000000
H    -0.119000000    -5.666000000    -4.714000000
C     0.128000000    -5.481000000    -2.563000000
O    -1.019000000    -6.113000000    -2.313000000
C    -1.540000000    -6.632000000    -1.142000000
C    -2.482000000    -5.959000000    -0.377000000
H    -2.835000000    -4.979000000    -0.688000000
C    -1.040000000    -7.817000000    -0.638000000
H    -0.399000000    -8.529000000    -1.151000000
C    -1.500000000    -8.252000000     0.628000000
H    -1.166000000    -9.193000000     1.058000000
C    -2.536000000    -7.607000000     1.294000000
H    -2.907000000    -8.032000000     2.223000000
C    -2.902000000    -6.381000000     0.858000000
O    -3.912000000    -5.660000000     1.463000000
C    -3.697000000    -4.370000000     1.684000000
C    -4.542000000    -3.421000000     1.137000000
H    -5.182000000    -3.765000000     0.329000000
C    -4.267000000    -2.065000000     1.309000000
O    -4.992000000    -1.130000000     0.625000000
C    -5.614000000    -0.150000000     1.344000000
C    -5.158000000     1.199000000     1.321000000
H    -4.189000000     1.403000000     0.872000000
C    -6.708000000    -0.492000000     2.137000000
H    -7.047000000    -1.525000000     2.140000000
C    -7.438000000     0.531000000     2.726000000
H    -8.387000000     0.284000000     3.195000000
C    -7.134000000     1.908000000     2.601000000
H    -7.766000000     2.703000000     2.990000000
C    -6.018000000     2.236000000     1.884000000
O    -5.717000000     3.620000000     1.918000000
C    -4.591000000     3.957000000     1.310000000
C    -4.549000000     4.929000000     0.308000000
H    -5.504000000     5.242000000    -0.106000000
C    -3.331000000     5.386000000    -0.227000000
O    -3.332000000     6.346000000    -1.190000000
C    -2.312000000     6.534000000    -2.053000000
C    -1.902000000     5.590000000    -2.973000000
H    -2.422000000     4.636000000    -2.982000000
C    -1.599000000     7.726000000    -1.990000000
H    -1.911000000     8.386000000    -1.185000000
C    -0.530000000     7.978000000    -2.832000000
H     0.010000000     8.911000000    -2.696000000
C    -0.229000000     7.042000000    -3.861000000
H     0.574000000     7.083000000    -4.593000000
C    -0.921000000     5.854000000    -3.909000000
O    -0.477000000     4.879000000    -4.770000000
C     0.121000000     3.728000000    -4.318000000
C    -0.169000000     2.562000000    -5.009000000
H    -0.910000000     2.734000000    -5.785000000
C     0.410000000     1.354000000    -4.628000000
O     0.213000000     0.228000000    -5.366000000
C     1.196000000    -0.709000000    -5.774000000
C     1.970000000    -0.302000000    -6.826000000
H     1.965000000     0.735000000    -7.152000000
C     2.764000000    -1.229000000    -7.532000000
H     3.481000000    -0.900000000    -8.280000000
C     2.780000000    -2.594000000    -7.115000000
H     3.493000000    -3.319000000    -7.499000000
C     1.988000000    -2.970000000    -5.962000000
C     1.189000000    -2.027000000    -5.318000000
H     0.440000000    -2.323000000    -4.589000000
C    -1.358000000     0.833000000    -1.708000000
H    -1.778000000     1.800000000    -1.975000000
C    -0.559000000     0.839000000    -0.523000000
H    -0.386000000     1.830000000    -0.112000000
C     0.016000000    -0.312000000    -0.082000000
H     0.724000000    -0.247000000     0.753000000
C    -0.232000000    -1.465000000    -0.780000000
H     0.270000000    -2.337000000    -0.369000000
C    -1.009000000    -1.495000000    -1.967000000
H    -1.136000000    -2.432000000    -2.504000000
C    -1.616000000    -0.363000000    -2.474000000
C    -2.618000000    -0.362000000    -3.617000000
O    -2.969000000    -1.466000000    -4.060000000
O    -3.447000000     0.435000000    -3.819000000
O    -3.597000000     5.293000000    -6.469000000
H    -3.513000000     4.377000000    -6.204000000
H    -3.927000000     5.739000000    -5.689000000
O    -5.309000000     0.905000000    -1.806000000
H    -4.615000000     0.953000000    -2.464000000
H    -5.092000000     0.131000000    -1.286000000
O    -6.025000000     0.899000000    -4.786000000
H    -5.155000000     0.592000000    -4.529000000
H    -6.565000000     0.109000000    -4.794000000
O    -0.774000000     1.603000000    -8.919000000
H    -1.702000000     1.721000000    -9.122000000
H    -0.698000000     0.682000000    -8.669000000
O    -7.767000000    -1.541000000    -1.346000000
H    -8.527000000    -1.141000000    -1.769000000
H    -7.014000000    -1.146000000    -1.786000000
O    -3.927000000     2.825000000    -5.612000000
H    -3.554000000     2.242000000    -4.951000000
H    -4.491000000     2.260000000    -6.140000000
O    -1.230000000    -1.127000000    -8.119000000
H    -0.382000000    -1.021000000    -7.687000000
H    -1.825000000    -1.392000000    -7.418000000
O    -0.058000000    -4.389000000    -7.886000000
H    -0.790000000    -4.126000000    -8.444000000
H    -0.293000000    -4.065000000    -7.016000000
O    -4.252000000    -3.790000000    -3.316000000
H    -3.753000000    -4.438000000    -3.815000000
H    -3.827000000    -2.956000000    -3.516000000
O    -3.374000000     0.973000000    -8.875000000
H    -4.234000000     1.062000000    -8.463000000
H    -2.963000000     0.241000000    -8.415000000
O    -3.830000000    -1.028000000    -6.709000000
H    -4.406000000    -1.781000000    -6.580000000
H    -3.326000000    -0.971000000    -5.897000000
O    -4.999000000     4.926000000    -4.081000000
H    -5.695000000     4.600000000    -3.510000000
H    -4.734000000     4.163000000    -4.595000000
O    -5.762000000     1.395000000    -7.536000000
H    -6.515000000     1.787000000    -7.977000000
H    -6.140000000     0.895000000    -6.814000000
O    -1.969000000    -3.154000000    -6.065000000
H    -2.184000000    -2.555000000    -5.350000000
H    -2.611000000    -3.859000000    -5.988000000
O    -5.947000000    -2.201000000    -8.672000000
H    -6.644000000    -1.734000000    -9.132000000
H    -5.826000000    -1.710000000    -7.859000000
O    -5.614000000    -3.352000000    -5.639000000
H    -5.717000000    -4.187000000    -6.095000000
H    -5.076000000    -3.561000000    -4.875000000
O    -3.059000000    -5.705000000    -5.090000000
H    -3.390000000    -6.513000000    -4.697000000
H    -2.314000000    -5.985000000    -5.622000000
O    -6.575000000     2.971000000    -2.965000000
H    -6.584000000     2.377000000    -3.715000000
H    -6.273000000     2.431000000    -2.235000000
O    -7.392000000    -1.306000000    -5.426000000
H    -8.218000000    -1.666000000    -5.750000000
H    -6.833000000    -2.071000000    -5.291000000
