215
-1452.39949
C     3.040000000    -0.893000000    -1.942000000
H     2.071000000    -1.341000000    -1.740000000
C     3.997000000    -0.980000000    -0.920000000
C     5.140000000    -0.176000000    -1.128000000
H     5.883000000     0.005000000    -0.355000000
C     3.671000000    -1.581000000     0.453000000
O     3.698000000    -3.045000000     0.353000000
H     2.652000000    -1.285000000     0.741000000
O     4.660000000    -1.193000000     1.465000000
C     4.051000000    -0.694000000     2.589000000
C     3.944000000     0.659000000     2.793000000
H     4.513000000     1.239000000     2.071000000
C     3.086000000     1.196000000     3.771000000
O     2.752000000     2.544000000     3.784000000
C     2.325000000     0.365000000     4.597000000
C     1.269000000     0.880000000     5.545000000
H     1.220000000     0.145000000     6.352000000
C    -0.135000000     0.946000000     4.843000000
C    -1.162000000    -0.040000000     5.083000000
H    -1.003000000    -0.866000000     5.771000000
H     1.586000000     1.719000000     6.168000000
C     2.452000000    -1.042000000     4.381000000
H     1.815000000    -1.741000000     4.918000000
C     3.334000000    -1.560000000     3.407000000
C     3.456000000    -3.081000000     3.198000000
H     3.382000000    -3.540000000     4.186000000
H     4.453000000    -3.348000000     2.843000000
C     2.407000000    -3.686000000     2.286000000
C     1.194000000    -4.222000000     2.772000000
H     1.063000000    -4.214000000     3.851000000
C     2.617000000    -3.669000000     0.911000000
C     1.710000000    -4.341000000     0.076000000
H     2.008000000    -4.394000000    -0.968000000
C     0.516000000    -4.802000000     0.629000000
O    -0.473000000    -5.145000000    -0.274000000
C    -1.558000000    -4.216000000    -0.602000000
C    -1.810000000    -4.301000000    -2.096000000
C    -3.036000000    -3.937000000    -2.578000000
H    -3.843000000    -3.825000000    -1.859000000
C    -0.763000000    -4.460000000    -3.039000000
H     0.220000000    -4.774000000    -2.698000000
O    -2.724000000    -4.547000000     0.126000000
H    -1.179000000    -3.210000000    -0.372000000
C     0.234000000    -4.670000000     1.991000000
C    -1.121000000    -5.019000000     2.575000000
H    -1.091000000    -5.231000000     3.646000000
H    -1.517000000    -5.958000000     2.183000000
C    -2.135000000    -3.911000000     2.376000000
C    -2.423000000    -3.115000000     3.427000000
H    -1.787000000    -3.131000000     4.308000000
C    -2.968000000    -3.852000000     1.264000000
C    -3.833000000    -2.776000000     1.094000000
H    -4.404000000    -2.690000000     0.174000000
C    -4.032000000    -1.831000000     2.073000000
O    -4.763000000    -0.638000000     1.810000000
C    -3.793000000     0.449000000     1.599000000
C    -4.326000000     1.321000000     0.526000000
C    -4.823000000     0.681000000    -0.603000000
H    -4.990000000    -0.388000000    -0.701000000
C    -4.228000000     2.712000000     0.557000000
H    -3.683000000     3.179000000     1.373000000
O    -3.693000000     1.285000000     2.774000000
H    -2.796000000     0.064000000     1.343000000
C    -3.361000000    -2.056000000     3.256000000
C    -3.387000000    -1.120000000     4.516000000
H    -3.293000000    -1.730000000     5.417000000
H    -4.395000000    -0.711000000     4.605000000
C    -2.363000000    -0.013000000     4.406000000
C    -2.591000000     1.110000000     3.576000000
C    -1.655000000     2.131000000     3.430000000
H    -1.873000000     3.043000000     2.879000000
C    -0.402000000     2.058000000     4.076000000
O     0.452000000     3.120000000     3.779000000
C     1.580000000     2.783000000     2.968000000
H     1.323000000     1.846000000     2.452000000
C     1.908000000     3.805000000     1.827000000
C     3.242000000     4.203000000     1.594000000
H     4.063000000     3.913000000     2.244000000
C     0.873000000     4.277000000     0.926000000
H    -0.139000000     3.902000000     1.047000000
C     1.182000000     5.123000000    -0.093000000
O     0.150000000     5.578000000    -0.954000000
C     2.534000000     5.409000000    -0.358000000
H     2.879000000     5.994000000    -1.207000000
C     3.516000000     4.956000000     0.500000000
O     4.827000000     5.395000000     0.233000000
C     5.699000000     4.821000000    -0.680000000
C     5.515000000     3.536000000    -1.190000000
H     4.565000000     3.022000000    -1.066000000
C     6.898000000     5.441000000    -0.887000000
H     7.057000000     6.400000000    -0.399000000
C     7.946000000     4.813000000    -1.618000000
H     8.950000000     5.217000000    -1.722000000
C     7.710000000     3.467000000    -2.023000000
H     8.547000000     2.902000000    -2.425000000
C     6.546000000     2.784000000    -1.773000000
O     6.408000000     1.543000000    -2.279000000
C     5.346000000     0.614000000    -2.291000000
C     4.388000000     0.495000000    -3.318000000
H     4.484000000     1.002000000    -4.275000000
C     3.233000000    -0.227000000    -3.148000000
O     2.392000000    -0.317000000    -4.280000000
C     2.292000000    -1.583000000    -4.878000000
C     1.190000000    -2.407000000    -4.647000000
H     0.389000000    -2.050000000    -4.004000000
C     3.319000000    -2.015000000    -5.750000000
H     4.144000000    -1.317000000    -5.862000000
C     3.271000000    -3.218000000    -6.410000000
H     4.139000000    -3.409000000    -7.036000000
C     2.091000000    -3.952000000    -6.311000000
H     1.952000000    -4.927000000    -6.771000000
C     1.092000000    -3.587000000    -5.384000000
O    -0.038000000    -4.379000000    -5.302000000
C    -0.999000000    -4.228000000    -4.369000000
C    -2.290000000    -3.914000000    -4.816000000
H    -2.495000000    -3.814000000    -5.879000000
C    -3.276000000    -3.714000000    -3.926000000
O    -4.544000000    -3.304000000    -4.349000000
C    -5.473000000    -2.631000000    -3.593000000
C    -5.314000000    -1.271000000    -3.504000000
H    -4.427000000    -0.801000000    -3.920000000
C    -6.654000000    -3.236000000    -3.105000000
H    -6.905000000    -4.268000000    -3.339000000
C    -7.592000000    -2.490000000    -2.440000000
H    -8.416000000    -2.995000000    -1.943000000
C    -7.384000000    -1.166000000    -2.292000000
H    -8.177000000    -0.561000000    -1.860000000
C    -6.322000000    -0.507000000    -2.853000000
O    -6.182000000     0.868000000    -2.617000000
C    -5.376000000     1.458000000    -1.703000000
C    -5.246000000     2.850000000    -1.634000000
H    -5.518000000     3.528000000    -2.438000000
C    -4.654000000     3.451000000    -0.537000000
O    -4.579000000     4.808000000    -0.539000000
C    -3.470000000     5.507000000    -0.168000000
C    -3.506000000     6.497000000     0.826000000
H    -4.451000000     6.718000000     1.315000000
C    -2.363000000     7.231000000     1.022000000
H    -2.390000000     8.119000000     1.647000000
C    -1.148000000     6.928000000     0.455000000
H    -0.280000000     7.559000000     0.630000000
C    -1.089000000     5.952000000    -0.491000000
C    -2.256000000     5.276000000    -0.788000000
H    -2.196000000     4.382000000    -1.402000000
C    -1.703000000     0.127000000    -2.327000000
H    -2.558000000     0.068000000    -2.996000000
C    -1.663000000    -0.731000000    -1.242000000
H    -2.438000000    -1.454000000    -1.001000000
C    -0.597000000    -0.509000000    -0.312000000
H    -0.429000000    -1.239000000     0.511000000
C     0.325000000     0.508000000    -0.506000000
H     1.205000000     0.624000000     0.121000000
C     0.249000000     1.348000000    -1.583000000
H     0.932000000     2.192000000    -1.623000000
C    -0.783000000     1.211000000    -2.558000000
C    -0.923000000     2.179000000    -3.710000000
O    -0.508000000     3.316000000    -3.589000000
O    -1.458000000     1.843000000    -4.777000000
O    -2.308000000     6.476000000    -7.156000000
H    -2.034000000     5.674000000    -6.710000000
H    -1.502000000     6.829000000    -7.531000000
O     3.204000000     6.398000000    -4.400000000
H     2.673000000     5.610000000    -4.284000000
H     3.392000000     6.424000000    -5.338000000
O    -0.454000000     7.329000000    -4.630000000
H    -1.178000000     6.706000000    -4.569000000
H     0.294000000     6.801000000    -4.908000000
O    -2.041000000     5.234000000    -4.083000000
H    -1.452000000     4.592000000    -3.687000000
H    -2.887000000     4.789000000    -4.125000000
O    -3.820000000     2.945000000    -4.152000000
H    -2.943000000     2.637000000    -4.380000000
H    -4.303000000     2.149000000    -3.931000000
O    -0.005000000     2.339000000    -9.617000000
H     0.036000000     1.953000000    -8.742000000
H     0.321000000     3.232000000    -9.500000000
O    -4.892000000     5.866000000    -6.733000000
H    -5.027000000     4.926000000    -6.853000000
H    -3.986000000     6.014000000    -7.002000000
O    -4.447000000     7.511000000    -2.842000000
H    -4.755000000     6.741000000    -2.365000000
H    -3.641000000     7.222000000    -3.269000000
O    -3.048000000    -0.144000000    -6.021000000
H    -2.399000000    -0.732000000    -6.407000000
H    -2.532000000     0.489000000    -5.522000000
O     1.815000000     2.715000000    -6.151000000
H     1.161000000     2.170000000    -6.589000000
H     1.520000000     3.612000000    -6.302000000
O     0.526000000     5.298000000    -6.568000000
H    -0.269000000     4.800000000    -6.759000000
H     0.469000000     6.066000000    -7.136000000
O    -0.999000000    -1.514000000    -7.524000000
H    -1.329000000    -1.419000000    -8.417000000
H    -0.490000000    -2.324000000    -7.541000000
O    -0.006000000     0.971000000    -7.021000000
H    -0.191000000     0.032000000    -7.004000000
H    -0.390000000     1.305000000    -6.210000000
O     2.647000000     1.244000000    -8.541000000
H     2.582000000     0.950000000    -7.633000000
H     2.630000000     2.200000000    -8.485000000
O     2.255000000     3.853000000    -3.663000000
H     1.343000000     3.883000000    -3.375000000
H     2.273000000     3.168000000    -4.331000000
O     4.572000000     3.111000000    -6.074000000
H     4.469000000     3.504000000    -6.940000000
H     3.681000000     3.049000000    -5.730000000
O    -1.652000000     3.797000000    -6.643000000
H    -2.461000000     3.428000000    -6.998000000
H    -1.348000000     3.144000000    -6.013000000
O    -4.581000000     3.034000000    -7.708000000
H    -4.584000000     2.398000000    -8.423000000
H    -4.975000000     2.567000000    -6.971000000
O    -5.787000000    -1.203000000    -6.847000000
H    -5.110000000    -0.978000000    -6.208000000
H    -5.301000000    -1.525000000    -7.607000000
