215
-1481.23472
C    -3.057000000    -1.500000000     1.458000000
H    -2.821000000    -0.449000000     1.599000000
C    -2.396000000    -2.480000000     2.156000000
C    -2.686000000    -3.838000000     1.888000000
H    -2.091000000    -4.604000000     2.379000000
C    -1.280000000    -2.142000000     3.178000000
O    -1.675000000    -1.266000000     4.238000000
H    -0.515000000    -1.649000000     2.560000000
O    -0.568000000    -3.302000000     3.726000000
C     0.774000000    -3.230000000     3.496000000
C     1.192000000    -3.899000000     2.390000000
H     0.466000000    -4.522000000     1.876000000
C     2.443000000    -3.653000000     1.983000000
O     2.839000000    -4.282000000     0.772000000
C     3.331000000    -2.742000000     2.568000000
C     4.716000000    -2.507000000     1.926000000
H     5.399000000    -2.315000000     2.756000000
C     4.673000000    -1.387000000     0.870000000
C     4.936000000    -0.045000000     1.232000000
H     5.221000000     0.227000000     2.246000000
H     5.087000000    -3.392000000     1.406000000
C     2.930000000    -2.127000000     3.763000000
H     3.473000000    -1.339000000     4.277000000
C     1.622000000    -2.319000000     4.219000000
C     1.106000000    -1.403000000     5.374000000
H     1.974000000    -1.199000000     6.005000000
H     0.361000000    -1.970000000     5.937000000
C     0.433000000    -0.109000000     4.857000000
C     1.160000000     1.077000000     4.848000000
H     2.244000000     1.094000000     4.934000000
C    -0.912000000    -0.102000000     4.388000000
C    -1.561000000     1.044000000     3.999000000
H    -2.629000000     0.967000000     3.811000000
C    -0.776000000     2.204000000     3.990000000
O    -1.416000000     3.433000000     3.681000000
C    -1.120000000     3.754000000     2.292000000
C    -2.355000000     4.239000000     1.581000000
C    -2.269000000     5.005000000     0.403000000
H    -1.282000000     5.211000000    -0.003000000
C    -3.604000000     3.683000000     1.973000000
H    -3.630000000     2.991000000     2.811000000
O    -0.052000000     4.809000000     2.215000000
H    -0.836000000     2.786000000     1.853000000
C     0.577000000     2.276000000     4.448000000
C     1.394000000     3.553000000     4.334000000
H     2.240000000     3.427000000     5.014000000
H     0.984000000     4.511000000     4.662000000
C     1.936000000     3.667000000     2.890000000
C     3.129000000     3.051000000     2.592000000
H     3.674000000     2.480000000     3.339000000
C     1.200000000     4.293000000     1.913000000
C     1.685000000     4.464000000     0.624000000
H     1.117000000     5.048000000    -0.095000000
C     2.926000000     3.840000000     0.342000000
O     3.260000000     3.678000000    -0.991000000
C     2.823000000     2.455000000    -1.514000000
C     2.037000000     2.646000000    -2.748000000
C     1.468000000     3.889000000    -3.106000000
H     1.409000000     4.700000000    -2.384000000
C     1.958000000     1.605000000    -3.662000000
H     2.538000000     0.732000000    -3.372000000
O     4.029000000     1.724000000    -1.864000000
H     2.298000000     1.820000000    -0.786000000
C     3.670000000     3.103000000     1.262000000
C     4.975000000     2.415000000     0.896000000
H     5.677000000     2.365000000     1.731000000
H     5.504000000     3.011000000     0.149000000
C     4.746000000     1.030000000     0.341000000
C     4.312000000     0.751000000    -0.931000000
C     4.131000000    -0.602000000    -1.344000000
H     3.805000000    -0.791000000    -2.364000000
C     4.262000000    -1.678000000    -0.498000000
O     3.886000000    -2.908000000    -0.858000000
C     2.692000000    -3.474000000    -0.393000000
H     2.092000000    -2.625000000    -0.031000000
C     1.952000000    -4.177000000    -1.514000000
C     1.103000000    -5.254000000    -1.272000000
H     1.071000000    -5.543000000    -0.225000000
C     2.138000000    -3.790000000    -2.823000000
H     2.842000000    -3.008000000    -3.096000000
C     1.404000000    -4.387000000    -3.856000000
O     1.571000000    -4.041000000    -5.166000000
C     0.594000000    -5.503000000    -3.588000000
H    -0.012000000    -6.058000000    -4.299000000
C     0.480000000    -5.949000000    -2.300000000
O    -0.091000000    -7.199000000    -2.022000000
C    -1.169000000    -7.281000000    -1.253000000
C    -2.013000000    -6.190000000    -0.846000000
H    -1.915000000    -5.222000000    -1.331000000
C    -1.379000000    -8.529000000    -0.722000000
H    -0.753000000    -9.368000000    -1.017000000
C    -2.507000000    -8.745000000     0.056000000
H    -2.685000000    -9.700000000     0.545000000
C    -3.314000000    -7.674000000     0.506000000
H    -4.159000000    -7.910000000     1.148000000
C    -3.059000000    -6.381000000     0.042000000
O    -4.013000000    -5.426000000     0.471000000
C    -3.668000000    -4.157000000     0.914000000
C    -4.507000000    -3.154000000     0.495000000
H    -5.313000000    -3.369000000    -0.202000000
C    -4.115000000    -1.848000000     0.594000000
O    -4.857000000    -0.884000000    -0.036000000
C    -5.644000000    -0.055000000     0.797000000
C    -5.483000000     1.318000000     0.776000000
H    -4.827000000     1.787000000     0.048000000
C    -6.603000000    -0.582000000     1.714000000
H    -6.739000000    -1.656000000     1.808000000
C    -7.391000000     0.207000000     2.516000000
H    -8.162000000    -0.161000000     3.187000000
C    -7.179000000     1.557000000     2.501000000
H    -7.629000000     2.163000000     3.283000000
C    -6.266000000     2.153000000     1.612000000
O    -5.941000000     3.501000000     1.685000000
C    -4.732000000     3.980000000     1.300000000
C    -4.722000000     4.760000000     0.147000000
H    -5.551000000     4.939000000    -0.532000000
C    -3.472000000     5.264000000    -0.318000000
O    -3.419000000     5.886000000    -1.523000000
C    -2.183000000     6.306000000    -2.085000000
C    -1.613000000     5.588000000    -3.139000000
H    -2.054000000     4.612000000    -3.327000000
C    -1.655000000     7.540000000    -1.846000000
H    -2.172000000     8.110000000    -1.077000000
C    -0.488000000     8.050000000    -2.471000000
H    -0.153000000     9.019000000    -2.108000000
C     0.183000000     7.189000000    -3.303000000
H     1.123000000     7.503000000    -3.750000000
C    -0.406000000     6.045000000    -3.790000000
O     0.293000000     5.234000000    -4.730000000
C     0.874000000     4.070000000    -4.336000000
C     0.709000000     3.044000000    -5.266000000
H     0.273000000     3.202000000    -6.249000000
C     1.208000000     1.772000000    -4.914000000
O     0.851000000     0.740000000    -5.749000000
C     1.543000000    -0.412000000    -5.902000000
C     2.784000000    -0.384000000    -6.630000000
H     3.178000000     0.577000000    -6.949000000
C     3.604000000    -1.483000000    -6.753000000
H     4.586000000    -1.474000000    -7.218000000
C     3.203000000    -2.694000000    -6.124000000
H     3.933000000    -3.489000000    -5.997000000
C     1.954000000    -2.767000000    -5.582000000
C     1.119000000    -1.665000000    -5.444000000
H     0.159000000    -1.808000000    -4.955000000
C    -1.317000000     1.040000000    -1.743000000
H    -1.893000000     1.626000000    -2.455000000
C    -0.658000000     1.639000000    -0.657000000
H    -0.716000000     2.713000000    -0.499000000
C     0.120000000     0.871000000     0.138000000
H     0.767000000     1.246000000     0.917000000
C     0.129000000    -0.533000000    -0.037000000
H     0.764000000    -1.156000000     0.589000000
C    -0.594000000    -1.138000000    -1.035000000
H    -0.528000000    -2.214000000    -1.175000000
C    -1.327000000    -0.328000000    -1.930000000
C    -2.053000000    -1.057000000    -3.067000000
O    -2.100000000    -2.251000000    -3.216000000
O    -2.571000000    -0.333000000    -3.916000000
O    -2.545000000     4.692000000    -6.714000000
H    -1.907000000     4.267000000    -6.140000000
H    -2.844000000     5.453000000    -6.217000000
O    -5.048000000    -1.862000000    -3.664000000
H    -4.300000000    -1.415000000    -4.062000000
H    -4.690000000    -2.690000000    -3.345000000
O    -4.608000000    -0.147000000    -9.683000000
H    -4.358000000    -1.058000000    -9.839000000
H    -4.788000000    -0.107000000    -8.743000000
O    -7.009000000    -0.156000000    -4.873000000
H    -6.359000000    -0.479000000    -4.250000000
H    -6.520000000    -0.032000000    -5.687000000
O    -7.163000000    -2.697000000    -6.567000000
H    -7.446000000    -3.031000000    -7.418000000
H    -7.977000000    -2.521000000    -6.095000000
O    -2.328000000     2.429000000    -5.196000000
H    -2.233000000     1.600000000    -4.726000000
H    -3.188000000     2.372000000    -5.612000000
O    -0.952000000    -1.155000000    -9.383000000
H    -0.818000000    -1.938000000    -8.850000000
H    -1.066000000    -0.448000000    -8.747000000
O    -0.740000000    -3.553000000    -7.903000000
H    -1.162000000    -4.197000000    -8.472000000
H    -1.196000000    -3.637000000    -7.066000000
O    -3.964000000    -4.277000000    -3.203000000
H    -3.544000000    -5.134000000    -3.132000000
H    -3.237000000    -3.653000000    -3.200000000
O    -1.495000000     1.203000000    -7.603000000
H    -1.554000000     1.903000000    -6.953000000
H    -2.014000000     0.489000000    -7.235000000
O    -6.030000000    -6.359000000    -1.761000000
H    -6.724000000    -5.806000000    -1.403000000
H    -5.688000000    -5.863000000    -2.505000000
O    -2.380000000    -1.114000000    -6.409000000
H    -1.761000000    -1.833000000    -6.539000000
H    -2.477000000    -1.051000000    -5.459000000
O    -5.681000000     3.501000000    -3.611000000
H    -5.322000000     2.786000000    -3.085000000
H    -5.596000000     3.199000000    -4.516000000
O    -4.848000000     2.279000000    -6.155000000
H    -5.304000000     1.442000000    -6.245000000
H    -5.095000000     2.772000000    -6.937000000
O    -1.733000000    -3.886000000    -5.629000000
H    -1.956000000    -3.369000000    -4.854000000
H    -1.840000000    -4.795000000    -5.349000000
O    -5.644000000    -4.512000000    -5.343000000
H    -6.090000000    -3.685000000    -5.530000000
H    -5.060000000    -4.308000000    -4.613000000
O    -2.557000000    -6.564000000    -4.739000000
H    -1.989000000    -7.152000000    -4.241000000
H    -3.233000000    -7.135000000    -5.103000000
O    -4.806000000     1.256000000    -2.556000000
H    -5.413000000     0.848000000    -1.940000000
H    -4.472000000     0.529000000    -3.082000000
O    -4.850000000    -0.480000000    -6.773000000
H    -5.454000000    -1.206000000    -6.928000000
H    -3.981000000    -0.858000000    -6.912000000
