215
-1460.72469
C    -4.938000000    -1.582000000     2.478000000
H    -4.868000000    -0.619000000     2.978000000
C    -3.900000000    -2.511000000     2.541000000
C    -4.036000000    -3.668000000     1.757000000
H    -3.240000000    -4.403000000     1.843000000
C    -2.557000000    -2.263000000     3.174000000
O    -2.612000000    -1.176000000     4.158000000
H    -1.832000000    -1.967000000     2.402000000
O    -1.821000000    -3.389000000     3.746000000
C    -0.424000000    -3.417000000     3.466000000
C     0.018000000    -3.971000000     2.253000000
H    -0.758000000    -4.324000000     1.579000000
C     1.337000000    -3.929000000     1.863000000
O     1.716000000    -4.426000000     0.659000000
C     2.293000000    -3.258000000     2.652000000
C     3.732000000    -3.218000000     2.303000000
H     4.375000000    -3.220000000     3.186000000
C     4.082000000    -2.039000000     1.311000000
C     4.598000000    -0.870000000     1.818000000
H     4.718000000    -0.809000000     2.896000000
H     4.140000000    -4.107000000     1.816000000
C     1.847000000    -2.673000000     3.856000000
H     2.538000000    -2.132000000     4.497000000
C     0.527000000    -2.741000000     4.233000000
C    -0.029000000    -1.871000000     5.357000000
H     0.773000000    -1.599000000     6.047000000
H    -0.861000000    -2.264000000     5.945000000
C    -0.385000000    -0.479000000     4.797000000
C     0.597000000     0.574000000     4.860000000
H     1.588000000     0.406000000     5.274000000
C    -1.649000000    -0.192000000     4.244000000
C    -1.938000000     1.143000000     3.911000000
H    -2.926000000     1.396000000     3.536000000
C    -1.016000000     2.153000000     3.977000000
O    -1.381000000     3.354000000     3.400000000
C    -0.685000000     3.703000000     2.189000000
C    -1.663000000     4.301000000     1.086000000
C    -1.421000000     5.476000000     0.349000000
H    -0.447000000     5.959000000     0.349000000
C    -2.874000000     3.562000000     0.895000000
H    -2.974000000     2.641000000     1.464000000
O     0.486000000     4.507000000     2.355000000
H    -0.472000000     2.696000000     1.801000000
C     0.294000000     1.846000000     4.424000000
C     1.434000000     2.882000000     4.407000000
H     2.240000000     2.789000000     5.138000000
H     0.873000000     3.772000000     4.700000000
C     2.159000000     2.994000000     3.071000000
C     3.409000000     2.353000000     2.926000000
H     3.943000000     1.941000000     3.778000000
C     1.636000000     3.839000000     2.086000000
C     2.183000000     3.829000000     0.820000000
H     1.708000000     4.434000000     0.051000000
C     3.355000000     3.160000000     0.593000000
O     3.884000000     3.245000000    -0.655000000
C     3.747000000     2.049000000    -1.430000000
C     3.410000000     2.352000000    -2.884000000
C     2.503000000     3.395000000    -3.203000000
H     2.089000000     3.969000000    -2.378000000
C     3.733000000     1.481000000    -3.941000000
H     4.365000000     0.619000000    -3.743000000
O     4.838000000     1.141000000    -1.253000000
H     2.828000000     1.483000000    -1.219000000
C     3.977000000     2.441000000     1.663000000
C     5.226000000     1.652000000     1.526000000
H     5.666000000     1.623000000     2.525000000
H     6.082000000     2.061000000     0.986000000
C     4.865000000     0.272000000     1.002000000
C     4.746000000     0.138000000    -0.389000000
C     4.166000000    -1.073000000    -0.872000000
H     3.858000000    -1.124000000    -1.914000000
C     3.874000000    -2.132000000    -0.095000000
O     3.208000000    -3.170000000    -0.687000000
C     1.807000000    -3.407000000    -0.367000000
H     1.392000000    -2.444000000    -0.034000000
C     1.120000000    -3.804000000    -1.641000000
C     0.049000000    -4.644000000    -1.617000000
H    -0.318000000    -5.124000000    -0.713000000
C     1.453000000    -3.212000000    -2.885000000
H     2.266000000    -2.494000000    -2.961000000
C     0.873000000    -3.593000000    -4.026000000
O     1.139000000    -2.977000000    -5.272000000
C    -0.128000000    -4.563000000    -4.054000000
H    -0.697000000    -4.880000000    -4.925000000
C    -0.603000000    -5.021000000    -2.852000000
O    -1.655000000    -5.893000000    -2.802000000
C    -2.374000000    -6.177000000    -1.656000000
C    -3.513000000    -5.439000000    -1.379000000
H    -3.781000000    -4.615000000    -2.036000000
C    -1.937000000    -7.302000000    -0.866000000
H    -1.038000000    -7.827000000    -1.177000000
C    -2.672000000    -7.586000000     0.289000000
H    -2.373000000    -8.330000000     1.022000000
C    -3.839000000    -6.773000000     0.574000000
H    -4.368000000    -6.934000000     1.510000000
C    -4.168000000    -5.685000000    -0.214000000
O    -5.253000000    -4.931000000     0.092000000
C    -5.175000000    -3.908000000     0.971000000
C    -6.202000000    -2.987000000     0.995000000
H    -7.029000000    -3.087000000     0.298000000
C    -6.094000000    -1.789000000     1.699000000
O    -7.058000000    -0.810000000     1.683000000
C    -6.784000000     0.544000000     1.725000000
C    -6.052000000     1.181000000     0.666000000
H    -5.659000000     0.531000000    -0.112000000
C    -7.261000000     1.299000000     2.779000000
H    -7.785000000     0.801000000     3.591000000
C    -6.882000000     2.639000000     2.913000000
H    -7.231000000     3.315000000     3.689000000
C    -6.089000000     3.206000000     1.878000000
H    -5.829000000     4.261000000     1.879000000
C    -5.569000000     2.464000000     0.826000000
O    -4.862000000     3.086000000    -0.208000000
C    -3.787000000     3.926000000    -0.063000000
C    -3.510000000     5.000000000    -0.876000000
H    -4.087000000     5.158000000    -1.783000000
C    -2.356000000     5.775000000    -0.677000000
O    -1.955000000     6.696000000    -1.590000000
C    -0.824000000     6.662000000    -2.401000000
C    -0.518000000     5.566000000    -3.224000000
H    -1.252000000     4.790000000    -3.429000000
C     0.028000000     7.701000000    -2.274000000
H    -0.212000000     8.517000000    -1.596000000
C     1.188000000     7.749000000    -3.114000000
H     1.959000000     8.512000000    -3.035000000
C     1.539000000     6.609000000    -3.865000000
H     2.443000000     6.623000000    -4.468000000
C     0.672000000     5.553000000    -3.939000000
O     0.976000000     4.433000000    -4.746000000
C     1.946000000     3.518000000    -4.475000000
C     2.408000000     2.664000000    -5.528000000
H     1.958000000     2.722000000    -6.515000000
C     3.340000000     1.695000000    -5.251000000
O     3.795000000     0.799000000    -6.228000000
C     3.720000000    -0.573000000    -6.036000000
C     4.840000000    -1.374000000    -6.149000000
H     5.717000000    -0.963000000    -6.642000000
C     4.804000000    -2.733000000    -5.860000000
H     5.736000000    -3.293000000    -5.890000000
C     3.542000000    -3.311000000    -5.601000000
H     3.488000000    -4.352000000    -5.295000000
C     2.415000000    -2.510000000    -5.610000000
C     2.557000000    -1.149000000    -5.732000000
H     1.655000000    -0.545000000    -5.775000000
C    -0.407000000     0.075000000    -2.433000000
H     0.097000000     0.714000000    -3.154000000
C    -0.182000000     0.353000000    -1.095000000
H     0.366000000     1.184000000    -0.657000000
C    -0.735000000    -0.469000000    -0.045000000
H    -0.573000000    -0.159000000     1.047000000
C    -1.498000000    -1.575000000    -0.403000000
H    -1.988000000    -2.170000000     0.363000000
C    -1.840000000    -1.750000000    -1.766000000
H    -2.547000000    -2.502000000    -2.107000000
C    -1.354000000    -0.906000000    -2.782000000
C    -1.658000000    -1.087000000    -4.231000000
O    -2.540000000    -1.862000000    -4.523000000
O    -1.112000000    -0.489000000    -5.161000000
O     1.090000000     1.539000000    -8.388000000
H     0.797000000     0.707000000    -8.015000000
H     1.741000000     1.290000000    -9.044000000
O    -3.303000000    -1.714000000    -8.981000000
H    -3.443000000    -2.245000000    -9.765000000
H    -2.849000000    -2.298000000    -8.374000000
O    -4.950000000    -0.831000000    -2.786000000
H    -4.974000000     0.046000000    -2.403000000
H    -4.042000000    -0.946000000    -3.065000000
O    -4.349000000     1.797000000    -8.867000000
H    -4.853000000     1.971000000    -8.072000000
H    -3.679000000     1.170000000    -8.594000000
O    -1.058000000     2.134000000    -4.783000000
H    -1.052000000     1.222000000    -5.072000000
H    -0.263000000     2.510000000    -5.160000000
O    -1.474000000     0.540000000    -9.764000000
H    -2.308000000     0.072000000    -9.723000000
H    -0.953000000     0.163000000    -9.054000000
O    -4.758000000    -3.392000000    -4.927000000
H    -5.229000000    -3.077000000    -4.156000000
H    -3.888000000    -2.999000000    -4.854000000
O    -0.192000000    -0.725000000    -7.616000000
H     0.055000000    -1.605000000    -7.903000000
H    -0.544000000    -0.851000000    -6.734000000
O    -4.426000000    -0.846000000    -6.193000000
H    -4.137000000    -1.431000000    -6.894000000
H    -3.803000000    -0.997000000    -5.483000000
O    -0.109000000    -3.246000000    -8.634000000
H    -0.935000000    -3.033000000    -8.199000000
H     0.039000000    -4.169000000    -8.428000000
O    -7.540000000    -0.620000000    -5.983000000
H    -7.366000000    -0.787000000    -6.909000000
H    -6.673000000    -0.595000000    -5.577000000
O    -5.707000000     2.701000000    -3.633000000
H    -6.128000000     2.938000000    -2.807000000
H    -4.784000000     2.582000000    -3.406000000
O    -3.402000000     3.714000000    -5.514000000
H    -2.650000000     3.236000000    -5.165000000
H    -4.067000000     3.041000000    -5.659000000
O    -2.357000000    -3.251000000    -7.042000000
H    -2.273000000    -2.907000000    -6.153000000
H    -3.097000000    -3.857000000    -6.996000000
O    -7.428000000    -2.542000000    -3.155000000
H    -7.821000000    -2.693000000    -2.295000000
H    -6.855000000    -1.786000000    -3.027000000
O    -5.893000000    -5.627000000    -2.961000000
H    -5.344000000    -4.998000000    -3.430000000
H    -6.789000000    -5.346000000    -3.144000000
O    -4.557000000    -5.035000000    -7.147000000
H    -5.064000000    -5.118000000    -7.955000000
H    -5.065000000    -4.429000000    -6.607000000
O    -3.000000000     2.024000000    -2.838000000
H    -2.219000000     1.683000000    -3.273000000
H    -2.665000000     2.665000000    -2.212000000
O    -5.337000000     1.798000000    -6.175000000
H    -5.142000000     0.869000000    -6.050000000
H    -5.633000000     2.098000000    -5.316000000
