215
-1458.79140
C    -3.981000000    -1.332000000     1.641000000
H    -3.668000000    -0.312000000     1.849000000
C    -3.212000000    -2.420000000     2.031000000
C    -3.589000000    -3.680000000     1.527000000
H    -2.983000000    -4.546000000     1.780000000
C    -2.080000000    -2.063000000     2.936000000
O    -2.424000000    -1.183000000     4.038000000
H    -1.391000000    -1.446000000     2.340000000
O    -1.464000000    -3.276000000     3.415000000
C    -0.118000000    -3.294000000     3.175000000
C     0.393000000    -4.169000000     2.234000000
H    -0.176000000    -4.778000000     1.535000000
C     1.807000000    -4.110000000     1.923000000
O     2.201000000    -4.690000000     0.743000000
C     2.646000000    -3.223000000     2.557000000
C     4.112000000    -3.015000000     2.219000000
H     4.604000000    -2.601000000     3.101000000
C     4.372000000    -2.000000000     1.137000000
C     4.811000000    -0.735000000     1.579000000
H     5.152000000    -0.605000000     2.603000000
H     4.581000000    -3.966000000     1.959000000
C     2.100000000    -2.388000000     3.509000000
H     2.741000000    -1.709000000     4.065000000
C     0.796000000    -2.519000000     3.899000000
C     0.245000000    -1.763000000     5.055000000
H     0.880000000    -1.737000000     5.943000000
H    -0.549000000    -2.408000000     5.439000000
C    -0.233000000    -0.398000000     4.787000000
C     0.647000000     0.653000000     4.896000000
H     1.667000000     0.470000000     5.225000000
C    -1.562000000    -0.164000000     4.338000000
C    -1.967000000     1.171000000     4.081000000
H    -2.936000000     1.382000000     3.636000000
C    -1.022000000     2.192000000     4.043000000
O    -1.338000000     3.419000000     3.536000000
C    -0.886000000     3.763000000     2.158000000
C    -2.036000000     4.397000000     1.385000000
C    -1.679000000     5.097000000     0.149000000
H    -0.629000000     5.285000000    -0.059000000
C    -3.373000000     4.147000000     1.671000000
H    -3.698000000     3.774000000     2.639000000
O     0.224000000     4.610000000     2.175000000
H    -0.606000000     2.828000000     1.649000000
C     0.269000000     1.950000000     4.521000000
C     1.308000000     3.071000000     4.389000000
H     2.004000000     2.807000000     5.187000000
H     0.763000000     3.963000000     4.704000000
C     2.020000000     3.196000000     3.088000000
C     3.138000000     2.469000000     2.786000000
H     3.543000000     1.869000000     3.598000000
C     1.489000000     4.004000000     2.114000000
C     2.066000000     4.090000000     0.862000000
H     1.550000000     4.769000000     0.188000000
C     3.191000000     3.307000000     0.538000000
O     3.710000000     3.280000000    -0.768000000
C     3.441000000     2.126000000    -1.527000000
C     2.903000000     2.419000000    -2.921000000
C     2.412000000     3.723000000    -3.241000000
H     2.466000000     4.478000000    -2.461000000
C     2.654000000     1.405000000    -3.898000000
H     2.979000000     0.385000000    -3.710000000
O     4.544000000     1.183000000    -1.529000000
H     2.688000000     1.484000000    -1.046000000
C     3.754000000     2.485000000     1.492000000
C     5.022000000     1.739000000     1.254000000
H     5.625000000     1.687000000     2.163000000
H     5.557000000     2.209000000     0.426000000
C     4.757000000     0.384000000     0.698000000
C     4.460000000     0.128000000    -0.626000000
C     4.245000000    -1.138000000    -1.085000000
H     4.041000000    -1.242000000    -2.148000000
C     4.017000000    -2.149000000    -0.207000000
O     3.565000000    -3.360000000    -0.737000000
C     2.243000000    -3.796000000    -0.443000000
H     1.630000000    -2.908000000    -0.229000000
C     1.624000000    -4.348000000    -1.668000000
C     0.538000000    -5.226000000    -1.535000000
H     0.162000000    -5.356000000    -0.523000000
C     1.964000000    -3.897000000    -2.955000000
H     2.814000000    -3.254000000    -3.167000000
C     1.340000000    -4.463000000    -4.103000000
O     1.825000000    -4.269000000    -5.362000000
C     0.252000000    -5.312000000    -3.939000000
H    -0.247000000    -5.791000000    -4.779000000
C    -0.121000000    -5.647000000    -2.669000000
O    -1.219000000    -6.421000000    -2.577000000
C    -2.007000000    -6.634000000    -1.444000000
C    -3.065000000    -5.740000000    -1.215000000
H    -3.329000000    -4.941000000    -1.904000000
C    -1.772000000    -7.746000000    -0.632000000
H    -1.080000000    -8.539000000    -0.903000000
C    -2.519000000    -7.909000000     0.507000000
H    -2.486000000    -8.817000000     1.104000000
C    -3.628000000    -7.039000000     0.795000000
H    -4.329000000    -7.242000000     1.601000000
C    -3.906000000    -5.962000000    -0.128000000
O    -4.934000000    -5.078000000     0.122000000
C    -4.627000000    -3.835000000     0.646000000
C    -5.362000000    -2.732000000     0.292000000
H    -6.140000000    -2.895000000    -0.450000000
C    -5.089000000    -1.502000000     0.827000000
O    -5.904000000    -0.458000000     0.511000000
C    -6.071000000     0.637000000     1.381000000
C    -5.833000000     1.878000000     0.823000000
H    -5.358000000     1.912000000    -0.154000000
C    -6.594000000     0.593000000     2.666000000
H    -6.593000000    -0.421000000     3.058000000
C    -6.900000000     1.790000000     3.410000000
H    -7.351000000     1.813000000     4.399000000
C    -6.643000000     3.029000000     2.798000000
H    -6.845000000     3.971000000     3.301000000
C    -6.036000000     3.082000000     1.552000000
O    -5.599000000     4.309000000     1.083000000
C    -4.341000000     4.621000000     0.807000000
C    -3.996000000     5.197000000    -0.403000000
H    -4.816000000     5.444000000    -1.072000000
C    -2.683000000     5.383000000    -0.734000000
O    -2.360000000     6.100000000    -1.863000000
C    -1.137000000     6.505000000    -2.308000000
C    -0.583000000     5.747000000    -3.348000000
H    -1.043000000     4.821000000    -3.684000000
C    -0.411000000     7.555000000    -1.820000000
H    -0.771000000     8.059000000    -0.927000000
C     0.823000000     7.915000000    -2.438000000
H     1.368000000     8.736000000    -1.980000000
C     1.327000000     7.187000000    -3.493000000
H     2.226000000     7.514000000    -4.008000000
C     0.683000000     6.053000000    -3.864000000
O     1.303000000     5.234000000    -4.814000000
C     1.754000000     3.975000000    -4.485000000
C     1.588000000     2.877000000    -5.363000000
H     1.056000000     2.999000000    -6.303000000
C     1.911000000     1.584000000    -5.087000000
O     1.563000000     0.553000000    -5.882000000
C     2.310000000    -0.650000000    -5.979000000
C     3.657000000    -0.622000000    -6.296000000
H     4.115000000     0.341000000    -6.508000000
C     4.424000000    -1.787000000    -6.228000000
H     5.486000000    -1.769000000    -6.461000000
C     3.814000000    -3.019000000    -5.955000000
H     4.433000000    -3.910000000    -5.882000000
C     2.448000000    -3.050000000    -5.675000000
C     1.741000000    -1.865000000    -5.600000000
H     0.773000000    -1.912000000    -5.108000000
C    -0.703000000     0.996000000    -1.913000000
H    -0.863000000     1.850000000    -2.565000000
C     0.023000000     1.129000000    -0.710000000
H     0.646000000     1.977000000    -0.440000000
C     0.127000000    -0.040000000     0.044000000
H     0.817000000    -0.138000000     0.923000000
C    -0.633000000    -1.155000000    -0.318000000
H    -0.581000000    -2.060000000     0.282000000
C    -1.428000000    -1.188000000    -1.467000000
H    -2.009000000    -2.055000000    -1.770000000
C    -1.480000000    -0.009000000    -2.244000000
C    -2.292000000    -0.027000000    -3.528000000
O    -3.075000000    -0.887000000    -3.848000000
O    -2.352000000     1.041000000    -4.124000000
O    -6.194000000    -0.615000000    -8.551000000
H    -6.970000000    -1.129000000    -8.773000000
H    -6.058000000    -0.778000000    -7.618000000
O    -1.033000000     5.650000000    -6.518000000
H    -1.291000000     4.871000000    -6.026000000
H    -1.267000000     6.382000000    -5.948000000
O    -5.617000000     0.499000000    -2.754000000
H    -4.841000000     1.034000000    -2.922000000
H    -5.278000000    -0.390000000    -2.655000000
O    -1.892000000     3.521000000    -5.306000000
H    -1.816000000     2.627000000    -4.971000000
H    -2.819000000     3.619000000    -5.522000000
O    -2.933000000     1.597000000    -9.321000000
H    -3.055000000     0.733000000    -9.714000000
H    -2.411000000     1.431000000    -8.536000000
O    -1.401000000    -1.880000000    -8.104000000
H    -2.173000000    -2.206000000    -8.567000000
H    -1.469000000    -2.259000000    -7.228000000
O    -4.295000000    -3.177000000    -3.247000000
H    -4.039000000    -3.735000000    -3.981000000
H    -3.662000000    -2.460000000    -3.259000000
O    -2.039000000     0.560000000    -6.753000000
H    -1.617000000    -0.286000000    -6.905000000
H    -2.058000000     0.650000000    -5.800000000
O    -6.487000000    -5.230000000    -2.389000000
H    -7.265000000    -4.855000000    -1.978000000
H    -5.795000000    -4.589000000    -2.224000000
O    -4.555000000    -0.208000000    -5.951000000
H    -3.893000000    -0.195000000    -6.642000000
H    -4.051000000    -0.222000000    -5.137000000
O    -8.716000000     1.546000000    -4.291000000
H    -9.111000000     2.079000000    -4.981000000
H    -7.807000000     1.432000000    -4.566000000
O    -6.815000000     3.581000000    -2.731000000
H    -7.300000000     2.875000000    -3.159000000
H    -5.913000000     3.468000000    -3.030000000
O    -4.544000000     4.532000000    -5.419000000
H    -5.484000000     4.458000000    -5.585000000
H    -4.208000000     5.027000000    -6.167000000
O    -1.816000000    -2.841000000    -5.701000000
H    -1.982000000    -2.296000000    -4.933000000
H    -2.240000000    -3.675000000    -5.500000000
O    -8.033000000     0.782000000    -1.616000000
H    -8.490000000     1.062000000    -2.409000000
H    -7.131000000     0.632000000    -1.899000000
O    -6.686000000    -1.852000000    -5.900000000
H    -6.787000000    -1.985000000    -4.957000000
H    -5.918000000    -1.286000000    -5.981000000
O    -3.574000000    -4.902000000    -5.323000000
H    -4.043000000    -4.606000000    -6.103000000
H    -3.750000000    -5.842000000    -5.280000000
O    -4.136000000     3.147000000    -3.197000000
H    -3.549000000     2.398000000    -3.300000000
H    -4.101000000     3.597000000    -4.041000000
O    -6.121000000     1.911000000    -5.609000000
H    -6.130000000     2.123000000    -6.542000000
H    -5.436000000     1.249000000    -5.520000000
