215
-1444.11485
C    -4.697000000    -1.523000000     1.330000000
H    -4.504000000    -0.606000000     1.881000000
C    -3.668000000    -2.474000000     1.250000000
C    -3.819000000    -3.555000000     0.341000000
H    -3.045000000    -4.317000000     0.283000000
C    -2.405000000    -2.265000000     2.099000000
O    -2.658000000    -1.662000000     3.356000000
H    -1.653000000    -1.704000000     1.524000000
O    -1.675000000    -3.509000000     2.414000000
C    -0.330000000    -3.607000000     2.592000000
C     0.342000000    -4.394000000     1.666000000
H    -0.164000000    -5.007000000     0.925000000
C     1.749000000    -4.214000000     1.509000000
O     2.362000000    -4.722000000     0.349000000
C     2.470000000    -3.519000000     2.504000000
C     4.006000000    -3.496000000     2.413000000
H     4.474000000    -3.327000000     3.385000000
C     4.437000000    -2.275000000     1.499000000
C     4.623000000    -1.010000000     2.107000000
H     4.466000000    -0.972000000     3.182000000
H     4.560000000    -4.372000000     2.068000000
C     1.791000000    -2.850000000     3.528000000
H     2.460000000    -2.431000000     4.276000000
C     0.427000000    -2.957000000     3.626000000
C    -0.267000000    -2.374000000     4.848000000
H     0.399000000    -2.363000000     5.713000000
H    -1.114000000    -3.003000000     5.130000000
C    -0.693000000    -0.937000000     4.569000000
C     0.121000000     0.117000000     4.983000000
H     1.074000000    -0.079000000     5.469000000
C    -1.813000000    -0.659000000     3.850000000
C    -2.124000000     0.669000000     3.467000000
H    -2.951000000     0.866000000     2.790000000
C    -1.414000000     1.732000000     3.969000000
O    -1.695000000     3.012000000     3.536000000
C    -1.114000000     3.481000000     2.320000000
C    -2.164000000     4.191000000     1.444000000
C    -1.865000000     5.162000000     0.402000000
H    -0.857000000     5.559000000     0.313000000
C    -3.491000000     3.816000000     1.548000000
H    -3.801000000     3.117000000     2.321000000
O     0.098000000     4.286000000     2.705000000
H    -0.836000000     2.529000000     1.846000000
C    -0.224000000     1.443000000     4.721000000
C     0.747000000     2.553000000     4.909000000
H     1.409000000     2.281000000     5.734000000
H     0.218000000     3.443000000     5.256000000
C     1.592000000     2.748000000     3.678000000
C     2.826000000     2.099000000     3.591000000
H     3.013000000     1.361000000     4.368000000
C     1.262000000     3.662000000     2.704000000
C     2.110000000     3.921000000     1.653000000
H     1.750000000     4.603000000     0.887000000
C     3.260000000     3.194000000     1.481000000
O     3.711000000     3.212000000     0.173000000
C     3.320000000     1.992000000    -0.641000000
C     2.861000000     2.371000000    -2.041000000
C     2.470000000     3.666000000    -2.377000000
H     2.467000000     4.439000000    -1.613000000
C     2.797000000     1.388000000    -3.016000000
H     3.204000000     0.395000000    -2.842000000
O     4.530000000     1.197000000    -0.749000000
H     2.565000000     1.311000000    -0.221000000
C     3.710000000     2.310000000     2.505000000
C     4.990000000     1.469000000     2.298000000
H     5.458000000     1.261000000     3.262000000
H     5.781000000     2.062000000     1.836000000
C     4.840000000     0.158000000     1.414000000
C     4.689000000     0.083000000     0.011000000
C     4.583000000    -1.095000000    -0.683000000
H     4.464000000    -1.205000000    -1.758000000
C     4.552000000    -2.303000000     0.047000000
O     4.154000000    -3.413000000    -0.662000000
C     2.770000000    -3.747000000    -0.677000000
H     2.248000000    -2.829000000    -0.367000000
C     2.245000000    -4.178000000    -2.075000000
C     0.956000000    -4.643000000    -2.163000000
H     0.378000000    -4.818000000    -1.259000000
C     2.971000000    -3.854000000    -3.234000000
H     4.022000000    -3.574000000    -3.226000000
C     2.338000000    -4.129000000    -4.415000000
O     2.987000000    -3.713000000    -5.603000000
C     1.108000000    -4.794000000    -4.552000000
H     0.692000000    -5.133000000    -5.498000000
C     0.383000000    -5.053000000    -3.399000000
O    -0.813000000    -5.686000000    -3.493000000
C    -1.730000000    -5.986000000    -2.548000000
C    -2.867000000    -5.179000000    -2.393000000
H    -3.011000000    -4.216000000    -2.877000000
C    -1.664000000    -7.167000000    -1.813000000
H    -0.754000000    -7.762000000    -1.825000000
C    -2.687000000    -7.554000000    -0.962000000
H    -2.719000000    -8.391000000    -0.270000000
C    -3.857000000    -6.751000000    -0.878000000
H    -4.528000000    -6.964000000    -0.050000000
C    -3.913000000    -5.559000000    -1.589000000
O    -5.008000000    -4.677000000    -1.423000000
C    -4.872000000    -3.588000000    -0.492000000
C    -5.838000000    -2.628000000    -0.476000000
H    -6.538000000    -2.519000000    -1.300000000
C    -5.755000000    -1.576000000     0.444000000
O    -6.691000000    -0.581000000     0.389000000
C    -6.616000000     0.542000000     1.069000000
C    -6.140000000     1.738000000     0.547000000
H    -5.800000000     1.805000000    -0.484000000
C    -7.102000000     0.453000000     2.370000000
H    -7.580000000    -0.462000000     2.711000000
C    -7.252000000     1.599000000     3.098000000
H    -7.705000000     1.671000000     4.083000000
C    -6.804000000     2.836000000     2.574000000
H    -6.904000000     3.743000000     3.165000000
C    -6.202000000     2.866000000     1.335000000
O    -5.804000000     4.128000000     0.818000000
C    -4.435000000     4.408000000     0.725000000
C    -4.098000000     5.250000000    -0.301000000
H    -4.864000000     5.611000000    -0.983000000
C    -2.808000000     5.605000000    -0.551000000
O    -2.457000000     6.405000000    -1.615000000
C    -1.156000000     6.703000000    -1.926000000
C    -0.383000000     5.788000000    -2.612000000
H    -0.621000000     4.745000000    -2.805000000
C    -0.710000000     8.001000000    -1.541000000
H    -1.338000000     8.714000000    -1.013000000
C     0.571000000     8.422000000    -1.992000000
H     0.985000000     9.409000000    -1.798000000
C     1.287000000     7.503000000    -2.782000000
H     2.178000000     7.963000000    -3.202000000
C     0.860000000     6.213000000    -3.108000000
O     1.648000000     5.347000000    -3.933000000
C     1.945000000     4.041000000    -3.569000000
C     1.830000000     3.052000000    -4.624000000
H     1.296000000     3.245000000    -5.551000000
C     2.266000000     1.751000000    -4.294000000
O     2.206000000     0.867000000    -5.280000000
C     3.085000000    -0.130000000    -5.451000000
C     4.416000000     0.145000000    -5.436000000
H     4.761000000     1.176000000    -5.437000000
C     5.279000000    -0.991000000    -5.552000000
H     6.362000000    -0.903000000    -5.592000000
C     4.813000000    -2.290000000    -5.726000000
H     5.491000000    -3.120000000    -5.909000000
C     3.463000000    -2.445000000    -5.679000000
C     2.529000000    -1.418000000    -5.543000000
H     1.507000000    -1.744000000    -5.370000000
C     0.042000000    -1.439000000    -2.734000000
H     0.704000000    -2.063000000    -3.330000000
C     0.559000000    -1.091000000    -1.479000000
H     1.601000000    -1.267000000    -1.226000000
C    -0.313000000    -0.448000000    -0.545000000
H    -0.063000000    -0.115000000     0.440000000
C    -1.613000000    -0.132000000    -0.912000000
H    -2.258000000     0.356000000    -0.185000000
C    -2.106000000    -0.531000000    -2.173000000
H    -3.118000000    -0.287000000    -2.482000000
C    -1.243000000    -1.152000000    -3.104000000
C    -1.676000000    -1.465000000    -4.519000000
O    -2.774000000    -1.228000000    -4.845000000
O    -0.864000000    -1.814000000    -5.373000000
O    -3.658000000    -4.934000000    -5.739000000
H    -4.267000000    -4.446000000    -6.292000000
H    -2.797000000    -4.575000000    -5.955000000
O    -6.435000000    -0.503000000    -3.293000000
H    -6.241000000     0.328000000    -3.726000000
H    -5.721000000    -1.083000000    -3.557000000
O    -2.447000000    -0.443000000    -9.955000000
H    -1.511000000    -0.493000000    -9.765000000
H    -2.703000000     0.435000000    -9.671000000
O    -1.978000000     2.238000000    -8.424000000
H    -1.653000000     2.861000000    -7.775000000
H    -1.244000000     1.642000000    -8.572000000
O    -4.739000000    -2.434000000    -4.076000000
H    -4.643000000    -3.316000000    -4.435000000
H    -4.000000000    -1.945000000    -4.439000000
O    -1.429000000     3.920000000    -5.731000000
H    -1.464000000     3.275000000    -5.024000000
H    -2.208000000     4.461000000    -5.600000000
O    -5.466000000     1.561000000    -7.993000000
H    -5.264000000     2.496000000    -7.966000000
H    -4.616000000     1.130000000    -7.906000000
O    -0.923000000     2.153000000    -2.730000000
H    -0.017000000     1.961000000    -2.974000000
H    -1.337000000     1.294000000    -2.653000000
O    -3.231000000    -7.480000000    -6.803000000
H    -3.325000000    -6.530000000    -6.747000000
H    -4.120000000    -7.817000000    -6.688000000
O    -3.220000000    -0.094000000    -7.307000000
H    -2.270000000    -0.029000000    -7.403000000
H    -3.347000000    -0.732000000    -6.605000000
O    -0.394000000    -0.213000000    -7.358000000
H     0.532000000     0.026000000    -7.366000000
H    -0.473000000    -0.844000000    -6.643000000
O    -5.876000000    -3.975000000    -7.428000000
H    -6.728000000    -4.113000000    -7.014000000
H    -5.944000000    -3.112000000    -7.835000000
O    -3.806000000    -4.550000000    -9.050000000
H    -3.196000000    -4.199000000    -8.401000000
H    -4.663000000    -4.495000000    -8.627000000
O    -6.631000000     2.045000000    -4.780000000
H    -6.401000000     2.970000000    -4.693000000
H    -5.894000000     1.659000000    -5.254000000
O    -3.453000000     1.453000000    -5.002000000
H    -3.369000000     0.528000000    -4.770000000
H    -3.050000000     1.521000000    -5.867000000
O    -1.628000000    -3.487000000    -7.088000000
H    -1.342000000    -2.805000000    -6.481000000
H    -0.844000000    -3.700000000    -7.595000000
O    -7.350000000    -3.215000000    -4.360000000
H    -6.502000000    -2.826000000    -4.144000000
H    -7.988000000    -2.536000000    -4.140000000
O    -5.878000000    -1.836000000    -9.045000000
H    -5.805000000    -1.761000000    -9.997000000
H    -5.303000000    -1.149000000    -8.707000000
O    -3.835000000     2.781000000    -2.539000000
H    -2.924000000     2.766000000    -2.243000000
H    -3.802000000     2.447000000    -3.435000000
