215
-1470.96484
C    -4.907000000    -1.412000000     1.325000000
H    -4.975000000    -0.442000000     1.812000000
C    -3.874000000    -2.244000000     1.732000000
C    -3.661000000    -3.487000000     1.085000000
H    -2.734000000    -4.035000000     1.235000000
C    -2.901000000    -1.785000000     2.828000000
O    -3.460000000    -0.889000000     3.750000000
H    -2.090000000    -1.202000000     2.368000000
O    -2.337000000    -2.918000000     3.548000000
C    -0.913000000    -2.931000000     3.682000000
C    -0.122000000    -3.707000000     2.856000000
H    -0.648000000    -4.413000000     2.217000000
C     1.269000000    -3.494000000     2.771000000
O     1.857000000    -4.240000000     1.751000000
C     2.014000000    -2.645000000     3.629000000
C     3.508000000    -2.407000000     3.559000000
H     3.928000000    -2.098000000     4.519000000
C     3.980000000    -1.393000000     2.491000000
C     4.148000000    -0.087000000     2.852000000
H     4.136000000     0.056000000     3.929000000
H     4.037000000    -3.338000000     3.346000000
C     1.190000000    -1.859000000     4.418000000
H     1.675000000    -1.189000000     5.122000000
C    -0.252000000    -2.021000000     4.513000000
C    -1.083000000    -1.102000000     5.405000000
H    -0.523000000    -0.793000000     6.290000000
H    -1.967000000    -1.675000000     5.694000000
C    -1.578000000     0.194000000     4.771000000
C    -0.768000000     1.355000000     4.712000000
H     0.136000000     1.292000000     5.313000000
C    -2.754000000     0.244000000     4.017000000
C    -3.051000000     1.357000000     3.280000000
H    -4.015000000     1.430000000     2.783000000
C    -2.161000000     2.374000000     3.072000000
O    -2.429000000     3.384000000     2.138000000
C    -1.576000000     3.488000000     0.931000000
C    -2.380000000     3.913000000    -0.267000000
C    -1.832000000     4.679000000    -1.295000000
H    -0.805000000     5.029000000    -1.219000000
C    -3.689000000     3.522000000    -0.356000000
H    -4.097000000     2.776000000     0.321000000
O    -0.626000000     4.505000000     1.264000000
H    -1.060000000     2.579000000     0.588000000
C    -0.982000000     2.427000000     3.888000000
C    -0.100000000     3.699000000     3.913000000
H     0.315000000     3.827000000     4.915000000
H    -0.688000000     4.617000000     3.850000000
C     1.010000000     3.681000000     2.856000000
C     2.212000000     3.000000000     3.062000000
H     2.377000000     2.467000000     3.995000000
C     0.629000000     4.036000000     1.541000000
C     1.495000000     3.858000000     0.491000000
H     1.248000000     4.205000000    -0.509000000
C     2.865000000     3.546000000     0.817000000
O     3.804000000     3.429000000    -0.170000000
C     3.665000000     2.179000000    -0.841000000
C     3.415000000     2.218000000    -2.347000000
C     2.894000000     3.307000000    -2.956000000
H     2.640000000     4.223000000    -2.430000000
C     3.753000000     1.107000000    -3.096000000
H     4.076000000     0.181000000    -2.627000000
O     4.850000000     1.372000000    -0.529000000
H     2.793000000     1.601000000    -0.504000000
C     3.167000000     3.027000000     2.068000000
C     4.560000000     2.377000000     2.346000000
H     4.692000000     2.571000000     3.413000000
H     5.328000000     2.936000000     1.808000000
C     4.617000000     0.901000000     1.915000000
C     4.663000000     0.468000000     0.549000000
C     4.432000000    -0.858000000     0.228000000
H     4.503000000    -1.207000000    -0.799000000
C     4.050000000    -1.780000000     1.167000000
O     3.723000000    -3.108000000     0.784000000
C     2.279000000    -3.459000000     0.652000000
H     1.605000000    -2.591000000     0.589000000
C     2.004000000    -4.252000000    -0.663000000
C     0.979000000    -5.134000000    -0.721000000
H     0.258000000    -5.178000000     0.091000000
C     2.887000000    -4.133000000    -1.757000000
H     3.684000000    -3.404000000    -1.637000000
C     2.679000000    -4.810000000    -2.941000000
O     3.531000000    -4.675000000    -4.034000000
C     1.688000000    -5.745000000    -2.995000000
H     1.533000000    -6.307000000    -3.913000000
C     0.783000000    -5.904000000    -1.882000000
O    -0.272000000    -6.810000000    -1.941000000
C    -1.243000000    -6.870000000    -1.000000000
C    -2.373000000    -6.093000000    -1.200000000
H    -2.420000000    -5.327000000    -1.970000000
C    -1.254000000    -7.717000000     0.176000000
H    -0.375000000    -8.354000000     0.225000000
C    -2.326000000    -7.708000000     1.076000000
H    -2.230000000    -8.364000000     1.938000000
C    -3.423000000    -6.867000000     0.844000000
H    -4.323000000    -6.804000000     1.449000000
C    -3.441000000    -6.041000000    -0.314000000
O    -4.439000000    -5.158000000    -0.546000000
C    -4.593000000    -3.959000000     0.148000000
C    -5.586000000    -3.067000000    -0.257000000
H    -6.373000000    -3.432000000    -0.912000000
C    -5.729000000    -1.836000000     0.264000000
O    -6.710000000    -1.012000000    -0.099000000
C    -6.767000000     0.417000000    -0.019000000
C    -6.145000000     1.217000000    -1.013000000
H    -5.578000000     0.788000000    -1.835000000
C    -7.438000000     1.042000000     1.037000000
H    -7.808000000     0.392000000     1.825000000
C    -7.580000000     2.461000000     1.086000000
H    -8.041000000     2.850000000     1.990000000
C    -7.007000000     3.245000000     0.126000000
H    -7.079000000     4.330000000     0.145000000
C    -6.281000000     2.631000000    -0.892000000
O    -5.634000000     3.447000000    -1.750000000
C    -4.417000000     3.950000000    -1.502000000
C    -3.867000000     4.783000000    -2.458000000
H    -4.456000000     4.990000000    -3.348000000
C    -2.580000000     5.182000000    -2.359000000
O    -2.035000000     5.869000000    -3.409000000
C    -0.697000000     6.014000000    -3.561000000
C     0.098000000     5.090000000    -4.171000000
H    -0.370000000     4.159000000    -4.478000000
C    -0.180000000     7.288000000    -3.176000000
H    -0.872000000     8.024000000    -2.777000000
C     1.174000000     7.514000000    -3.277000000
H     1.548000000     8.516000000    -3.085000000
C     2.019000000     6.553000000    -3.885000000
H     3.033000000     6.827000000    -4.166000000
C     1.456000000     5.390000000    -4.367000000
O     2.219000000     4.460000000    -4.967000000
C     2.697000000     3.321000000    -4.354000000
C     2.972000000     2.179000000    -5.111000000
H     2.724000000     2.120000000    -6.168000000
C     3.470000000     1.031000000    -4.482000000
O     3.576000000    -0.101000000    -5.317000000
C     4.293000000    -1.173000000    -4.856000000
C     5.699000000    -1.217000000    -4.749000000
H     6.302000000    -0.319000000    -4.855000000
C     6.360000000    -2.341000000    -4.294000000
H     7.443000000    -2.413000000    -4.241000000
C     5.668000000    -3.562000000    -4.093000000
H     6.236000000    -4.426000000    -3.757000000
C     4.281000000    -3.521000000    -4.225000000
C     3.613000000    -2.366000000    -4.600000000
H     2.558000000    -2.354000000    -4.861000000
C     0.124000000    -1.536000000    -2.672000000
H     0.253000000    -1.971000000    -3.660000000
C     1.049000000    -0.780000000    -1.937000000
H     2.034000000    -0.521000000    -2.315000000
C     0.668000000    -0.306000000    -0.693000000
H     1.302000000     0.211000000    -0.021000000
C    -0.622000000    -0.506000000    -0.179000000
H    -0.897000000    -0.060000000     0.773000000
C    -1.561000000    -1.180000000    -0.937000000
H    -2.556000000    -1.430000000    -0.578000000
C    -1.182000000    -1.763000000    -2.145000000
C    -2.161000000    -2.596000000    -2.967000000
O    -3.322000000    -2.532000000    -2.734000000
O    -1.745000000    -3.069000000    -4.030000000
O    -3.257000000    -4.777000000    -5.673000000
H    -2.633000000    -4.309000000    -5.118000000
H    -3.507000000    -4.140000000    -6.343000000
O    -6.434000000    -4.583000000    -5.812000000
H    -5.989000000    -4.056000000    -6.476000000
H    -5.910000000    -4.464000000    -5.020000000
O    -2.628000000    -0.410000000    -9.013000000
H    -1.967000000     0.280000000    -8.960000000
H    -2.458000000    -0.964000000    -8.252000000
O    -5.380000000    -1.877000000    -4.681000000
H    -4.826000000    -2.061000000    -3.921000000
H    -6.274000000    -1.948000000    -4.348000000
O     1.039000000    -1.762000000    -8.352000000
H     0.743000000    -2.424000000    -7.727000000
H     1.936000000    -2.019000000    -8.565000000
O    -0.722000000     2.102000000    -5.030000000
H    -0.951000000     2.389000000    -4.146000000
H     0.021000000     1.513000000    -4.907000000
O    -6.012000000     0.832000000    -5.232000000
H    -5.916000000     0.982000000    -6.173000000
H    -5.745000000    -0.079000000    -5.107000000
O    -4.743000000    -4.652000000    -3.316000000
H    -4.435000000    -3.802000000    -3.001000000
H    -4.088000000    -4.920000000    -3.960000000
O     0.266000000    -5.942000000    -6.728000000
H    -0.408000000    -6.108000000    -6.069000000
H     0.638000000    -6.804000000    -6.913000000
O    -6.562000000    -6.431000000    -1.937000000
H    -5.894000000    -5.752000000    -1.847000000
H    -6.314000000    -6.907000000    -2.729000000
O    -1.096000000     1.907000000    -2.437000000
H    -1.997000000     1.638000000    -2.618000000
H    -0.780000000     1.269000000    -1.797000000
O    -4.435000000    -3.761000000    -7.859000000
H    -4.495000000    -2.840000000    -8.114000000
H    -4.714000000    -4.243000000    -8.637000000
O    -2.907000000    -1.458000000    -6.240000000
H    -2.002000000    -1.746000000    -6.124000000
H    -3.385000000    -1.876000000    -5.524000000
O     0.223000000    -3.104000000    -6.049000000
H    -0.181000000    -2.981000000    -5.190000000
H     0.103000000    -4.035000000    -6.238000000
O     2.605000000    -4.754000000    -7.409000000
H     1.851000000    -5.337000000    -7.499000000
H     2.567000000    -4.453000000    -6.501000000
O    -3.387000000     0.733000000    -3.298000000
H    -3.561000000     0.164000000    -2.548000000
H    -3.542000000     0.177000000    -4.061000000
O    -0.991000000    -7.254000000    -4.544000000
H    -0.710000000    -7.043000000    -3.654000000
H    -1.650000000    -7.939000000    -4.431000000
O    -3.770000000    -7.147000000    -6.409000000
H    -3.617000000    -6.229000000    -6.186000000
H    -4.722000000    -7.223000000    -6.471000000
O    -7.680000000    -1.875000000    -3.574000000
H    -7.885000000    -0.947000000    -3.687000000
H    -8.261000000    -2.165000000    -2.871000000
