215
-1475.45068
C    -4.770000000    -2.286000000     1.473000000
H    -5.203000000    -1.628000000     2.222000000
C    -3.485000000    -2.781000000     1.625000000
C    -3.029000000    -3.759000000     0.681000000
H    -2.080000000    -4.260000000     0.853000000
C    -2.591000000    -2.262000000     2.698000000
O    -3.216000000    -1.541000000     3.723000000
H    -1.919000000    -1.549000000     2.198000000
O    -1.775000000    -3.291000000     3.251000000
C    -0.380000000    -3.018000000     3.232000000
C     0.422000000    -3.612000000     2.303000000
H     0.054000000    -4.266000000     1.516000000
C     1.826000000    -3.361000000     2.345000000
O     2.659000000    -3.969000000     1.353000000
C     2.380000000    -2.430000000     3.264000000
C     3.908000000    -2.175000000     3.320000000
H     4.186000000    -2.029000000     4.366000000
C     4.181000000    -1.032000000     2.385000000
C     4.087000000     0.278000000     2.796000000
H     3.912000000     0.533000000     3.838000000
H     4.388000000    -3.103000000     3.005000000
C     1.502000000    -1.852000000     4.169000000
H     1.895000000    -1.151000000     4.901000000
C     0.150000000    -2.154000000     4.170000000
C    -0.610000000    -1.408000000     5.234000000
H     0.082000000    -1.076000000     6.011000000
H    -1.324000000    -2.049000000     5.755000000
C    -1.390000000    -0.193000000     4.601000000
C    -0.782000000     1.066000000     4.792000000
H     0.183000000     1.151000000     5.285000000
C    -2.664000000    -0.304000000     4.006000000
C    -3.268000000     0.836000000     3.476000000
H    -4.248000000     0.800000000     3.008000000
C    -2.556000000     2.013000000     3.505000000
O    -3.092000000     2.964000000     2.753000000
C    -2.319000000     3.121000000     1.509000000
C    -3.249000000     3.174000000     0.337000000
C    -2.708000000     3.544000000    -0.871000000
H    -1.632000000     3.653000000    -0.760000000
C    -4.563000000     2.682000000     0.410000000
H    -4.943000000     2.347000000     1.372000000
O    -1.513000000     4.337000000     1.528000000
H    -1.654000000     2.250000000     1.408000000
C    -1.388000000     2.189000000     4.271000000
C    -0.681000000     3.589000000     4.270000000
H    -0.083000000     3.820000000     5.153000000
H    -1.354000000     4.447000000     4.209000000
C     0.252000000     3.659000000     3.049000000
C     1.583000000     3.246000000     3.226000000
H     1.945000000     2.785000000     4.141000000
C    -0.210000000     4.142000000     1.822000000
C     0.727000000     4.328000000     0.781000000
H     0.323000000     4.828000000    -0.096000000
C     2.052000000     3.922000000     0.955000000
O     2.839000000     3.904000000    -0.176000000
C     3.100000000     2.674000000    -0.886000000
C     3.169000000     2.919000000    -2.386000000
C     2.281000000     3.916000000    -2.967000000
H     1.639000000     4.582000000    -2.396000000
C     3.901000000     2.043000000    -3.199000000
H     4.486000000     1.267000000    -2.712000000
O     4.295000000     2.056000000    -0.424000000
H     2.224000000     2.061000000    -0.627000000
C     2.450000000     3.340000000     2.135000000
C     3.897000000     2.770000000     2.427000000
H     4.106000000     2.808000000     3.498000000
H     4.652000000     3.365000000     1.908000000
C     4.120000000     1.326000000     1.926000000
C     4.324000000     1.079000000     0.591000000
C     4.570000000    -0.234000000     0.150000000
H     4.820000000    -0.493000000    -0.875000000
C     4.363000000    -1.288000000     1.035000000
O     4.425000000    -2.536000000     0.487000000
C     3.139000000    -3.153000000     0.227000000
H     2.321000000    -2.452000000     0.006000000
C     3.146000000    -3.864000000    -1.061000000
C     2.202000000    -4.862000000    -1.263000000
H     1.592000000    -5.214000000    -0.434000000
C     3.902000000    -3.375000000    -2.117000000
H     4.533000000    -2.497000000    -2.013000000
C     3.779000000    -3.892000000    -3.403000000
O     4.437000000    -3.394000000    -4.485000000
C     2.847000000    -4.892000000    -3.539000000
H     2.788000000    -5.298000000    -4.546000000
C     2.033000000    -5.383000000    -2.519000000
O     1.047000000    -6.277000000    -2.802000000
C    -0.039000000    -6.436000000    -1.943000000
C    -1.183000000    -5.659000000    -2.085000000
H    -1.230000000    -4.957000000    -2.913000000
C     0.024000000    -7.342000000    -0.858000000
H     0.937000000    -7.926000000    -0.786000000
C    -1.030000000    -7.430000000     0.058000000
H    -0.881000000    -8.114000000     0.890000000
C    -2.175000000    -6.709000000    -0.141000000
H    -3.106000000    -6.832000000     0.406000000
C    -2.208000000    -5.760000000    -1.188000000
O    -3.362000000    -5.054000000    -1.390000000
C    -3.805000000    -4.142000000    -0.342000000
C    -5.039000000    -3.491000000    -0.587000000
H    -5.611000000    -3.767000000    -1.469000000
C    -5.602000000    -2.652000000     0.397000000
O    -6.910000000    -2.219000000     0.344000000
C    -7.223000000    -0.914000000     0.609000000
C    -6.883000000     0.088000000    -0.300000000
H    -6.437000000    -0.236000000    -1.237000000
C    -7.657000000    -0.641000000     1.922000000
H    -7.974000000    -1.407000000     2.626000000
C    -7.855000000     0.708000000     2.278000000
H    -8.211000000     0.907000000     3.286000000
C    -7.596000000     1.733000000     1.376000000
H    -7.710000000     2.777000000     1.655000000
C    -7.117000000     1.403000000     0.101000000
O    -6.596000000     2.326000000    -0.718000000
C    -5.320000000     2.744000000    -0.746000000
C    -4.775000000     3.217000000    -1.948000000
H    -5.467000000     3.160000000    -2.784000000
C    -3.437000000     3.589000000    -2.061000000
O    -2.861000000     3.952000000    -3.222000000
C    -1.835000000     4.865000000    -3.323000000
C    -0.695000000     4.472000000    -4.061000000
H    -0.686000000     3.488000000    -4.523000000
C    -2.012000000     6.210000000    -2.937000000
H    -2.957000000     6.616000000    -2.586000000
C    -0.948000000     7.128000000    -3.148000000
H    -0.976000000     8.106000000    -2.676000000
C     0.236000000     6.721000000    -3.765000000
H     1.064000000     7.415000000    -3.878000000
C     0.337000000     5.440000000    -4.309000000
O     1.476000000     5.041000000    -4.948000000
C     2.290000000     4.059000000    -4.365000000
C     3.053000000     3.248000000    -5.199000000
H     3.026000000     3.426000000    -6.271000000
C     3.835000000     2.188000000    -4.609000000
O     4.419000000     1.274000000    -5.473000000
C     5.113000000     0.197000000    -5.065000000
C     6.331000000     0.322000000    -4.431000000
H     6.845000000     1.279000000    -4.399000000
C     6.981000000    -0.772000000    -3.859000000
H     7.935000000    -0.620000000    -3.361000000
C     6.342000000    -2.025000000    -3.964000000
H     6.794000000    -2.926000000    -3.559000000
C     5.098000000    -2.113000000    -4.508000000
C     4.406000000    -1.055000000    -5.011000000
H     3.386000000    -1.141000000    -5.376000000
C    -0.244000000    -1.733000000    -2.611000000
H     0.259000000    -2.283000000    -3.402000000
C     0.456000000    -0.952000000    -1.656000000
H     1.534000000    -0.849000000    -1.747000000
C    -0.192000000    -0.327000000    -0.630000000
H     0.446000000     0.305000000     0.020000000
C    -1.548000000    -0.426000000    -0.525000000
H    -1.962000000     0.007000000     0.382000000
C    -2.246000000    -1.213000000    -1.423000000
H    -3.295000000    -1.373000000    -1.189000000
C    -1.641000000    -1.809000000    -2.593000000
C    -2.460000000    -2.668000000    -3.533000000
O    -3.641000000    -2.712000000    -3.354000000
O    -1.938000000    -3.061000000    -4.590000000
O    -2.850000000    -6.084000000    -6.456000000
H    -2.251000000    -6.412000000    -7.126000000
H    -2.966000000    -5.159000000    -6.671000000
O     0.102000000    -3.367000000    -9.049000000
H     0.732000000    -3.310000000    -8.331000000
H    -0.752000000    -3.384000000    -8.618000000
O    -2.375000000    -1.818000000    -8.217000000
H    -2.338000000    -1.798000000    -7.260000000
H    -3.037000000    -2.479000000    -8.417000000
O    -5.942000000    -2.963000000    -4.833000000
H    -5.375000000    -2.705000000    -4.106000000
H    -6.825000000    -2.953000000    -4.463000000
O     1.127000000    -0.827000000    -8.070000000
H     0.531000000    -0.897000000    -7.324000000
H     0.679000000    -1.291000000    -8.778000000
O    -1.130000000    -0.519000000    -5.750000000
H    -0.876000000     0.072000000    -5.041000000
H    -0.833000000    -1.381000000    -5.461000000
O    -4.294000000     1.130000000    -6.725000000
H    -3.394000000     1.323000000    -6.989000000
H    -4.619000000     0.536000000    -7.401000000
O    -4.035000000    -5.456000000    -4.019000000
H    -3.936000000    -4.713000000    -3.424000000
H    -3.646000000    -5.158000000    -4.841000000
O     0.474000000    -5.996000000    -6.548000000
H    -0.161000000    -6.349000000    -7.171000000
H     1.171000000    -6.652000000    -6.519000000
O    -6.739000000    -6.150000000    -3.609000000
H    -5.940000000    -5.688000000    -3.860000000
H    -6.683000000    -6.990000000    -4.063000000
O    -1.057000000     1.155000000    -3.405000000
H    -1.925000000     1.554000000    -3.346000000
H    -0.972000000     0.647000000    -2.598000000
O    -3.436000000    -8.164000000    -3.084000000
H    -4.016000000    -7.528000000    -2.666000000
H    -3.816000000    -8.301000000    -3.952000000
O    -3.698000000    -3.401000000    -6.384000000
H    -3.039000000    -3.242000000    -5.708000000
H    -4.533000000    -3.374000000    -5.916000000
O     0.258000000    -3.120000000    -6.000000000
H    -0.429000000    -3.182000000    -5.336000000
H     0.583000000    -4.015000000    -6.093000000
O    -1.527000000     2.014000000    -6.680000000
H    -1.449000000     1.101000000    -6.402000000
H    -1.010000000     2.064000000    -7.485000000
O    -6.928000000     0.233000000    -3.723000000
H    -7.310000000    -0.584000000    -4.042000000
H    -5.983000000     0.097000000    -3.789000000
O    -4.297000000     0.050000000    -3.799000000
H    -3.977000000    -0.826000000    -3.585000000
H    -4.081000000     0.164000000    -4.725000000
O    -1.185000000    -7.993000000    -4.744000000
H    -0.921000000    -7.073000000    -4.729000000
H    -1.963000000    -8.029000000    -4.187000000
O    -7.221000000    -1.664000000    -7.145000000
H    -8.141000000    -1.788000000    -6.913000000
H    -6.759000000    -2.358000000    -6.674000000
