215
-1445.17462
C    -4.844000000    -0.988000000     1.341000000
H    -4.938000000    -0.298000000     2.176000000
C    -3.830000000    -1.921000000     1.391000000
C    -3.782000000    -2.963000000     0.467000000
H    -2.979000000    -3.685000000     0.583000000
C    -2.626000000    -1.773000000     2.419000000
O    -3.169000000    -1.187000000     3.705000000
H    -1.951000000    -1.035000000     1.962000000
O    -2.021000000    -3.014000000     2.644000000
C    -0.620000000    -3.180000000     2.787000000
C    -0.009000000    -3.800000000     1.713000000
H    -0.600000000    -4.165000000     0.877000000
C     1.354000000    -3.816000000     1.603000000
O     1.900000000    -4.414000000     0.536000000
C     2.111000000    -3.196000000     2.612000000
C     3.583000000    -3.095000000     2.543000000
H     3.989000000    -2.857000000     3.528000000
C     4.054000000    -2.009000000     1.655000000
C     4.346000000    -0.778000000     2.198000000
H     4.310000000    -0.719000000     3.283000000
H     4.058000000    -4.048000000     2.302000000
C     1.444000000    -2.568000000     3.686000000
H     1.964000000    -1.998000000     4.452000000
C     0.056000000    -2.609000000     3.851000000
C    -0.650000000    -1.984000000     5.032000000
H     0.003000000    -2.107000000     5.898000000
H    -1.553000000    -2.588000000     5.140000000
C    -1.082000000    -0.534000000     4.805000000
C    -0.143000000     0.472000000     5.099000000
H     0.853000000     0.253000000     5.476000000
C    -2.309000000    -0.229000000     4.213000000
C    -2.548000000     1.155000000     3.892000000
H    -3.529000000     1.382000000     3.483000000
C    -1.591000000     2.110000000     4.183000000
O    -1.906000000     3.354000000     3.707000000
C    -1.490000000     3.501000000     2.384000000
C    -2.530000000     4.221000000     1.508000000
C    -2.107000000     4.986000000     0.389000000
H    -1.035000000     4.994000000     0.208000000
C    -3.925000000     4.156000000     1.750000000
H    -4.250000000     3.519000000     2.569000000
O    -0.241000000     4.225000000     2.436000000
H    -1.339000000     2.518000000     1.915000000
C    -0.381000000     1.743000000     4.736000000
C     0.779000000     2.757000000     4.798000000
H     1.440000000     2.463000000     5.616000000
H     0.401000000     3.731000000     5.116000000
C     1.607000000     2.973000000     3.486000000
C     2.859000000     2.406000000     3.349000000
H     3.334000000     1.871000000     4.169000000
C     1.033000000     3.662000000     2.378000000
C     1.813000000     3.907000000     1.241000000
H     1.398000000     4.454000000     0.398000000
C     3.070000000     3.325000000     1.073000000
O     3.697000000     3.284000000    -0.178000000
C     3.676000000     1.983000000    -0.821000000
C     3.284000000     1.990000000    -2.283000000
C     2.048000000     2.517000000    -2.645000000
H     1.378000000     2.863000000    -1.862000000
C     3.981000000     1.344000000    -3.302000000
H     4.808000000     0.786000000    -2.871000000
O     4.988000000     1.394000000    -0.678000000
H     2.904000000     1.351000000    -0.356000000
C     3.558000000     2.511000000     2.152000000
C     4.893000000     1.743000000     2.025000000
H     5.481000000     1.732000000     2.945000000
H     5.593000000     2.276000000     1.379000000
C     4.748000000     0.388000000     1.453000000
C     4.908000000     0.208000000     0.070000000
C     4.700000000    -1.037000000    -0.489000000
H     4.903000000    -1.212000000    -1.543000000
C     4.258000000    -2.095000000     0.250000000
O     3.906000000    -3.272000000    -0.360000000
C     2.468000000    -3.572000000    -0.506000000
H     1.954000000    -2.607000000    -0.377000000
C     2.118000000    -4.052000000    -1.886000000
C     0.882000000    -4.601000000    -2.164000000
H     0.117000000    -4.640000000    -1.394000000
C     3.017000000    -3.855000000    -2.959000000
H     3.970000000    -3.382000000    -2.740000000
C     2.730000000    -4.282000000    -4.255000000
O     3.616000000    -4.106000000    -5.297000000
C     1.499000000    -4.891000000    -4.458000000
H     1.314000000    -5.286000000    -5.454000000
C     0.564000000    -5.082000000    -3.426000000
O    -0.640000000    -5.638000000    -3.701000000
C    -1.581000000    -5.738000000    -2.707000000
C    -2.611000000    -4.833000000    -2.644000000
H    -2.551000000    -3.972000000    -3.304000000
C    -1.632000000    -6.906000000    -1.898000000
H    -0.986000000    -7.771000000    -2.024000000
C    -2.691000000    -7.040000000    -1.025000000
H    -2.698000000    -7.904000000    -0.366000000
C    -3.748000000    -6.075000000    -0.896000000
H    -4.572000000    -6.210000000    -0.200000000
C    -3.684000000    -4.927000000    -1.728000000
O    -4.582000000    -3.914000000    -1.668000000
C    -4.747000000    -3.087000000    -0.533000000
C    -5.744000000    -2.102000000    -0.624000000
H    -6.556000000    -2.251000000    -1.331000000
C    -5.842000000    -1.076000000     0.321000000
O    -6.878000000    -0.161000000     0.245000000
C    -7.077000000     0.932000000     1.087000000
C    -6.740000000     2.183000000     0.608000000
H    -6.405000000     2.372000000    -0.409000000
C    -7.691000000     0.757000000     2.364000000
H    -7.972000000    -0.231000000     2.720000000
C    -7.832000000     1.865000000     3.159000000
H    -8.288000000     1.752000000     4.139000000
C    -7.386000000     3.138000000     2.678000000
H    -7.520000000     4.044000000     3.264000000
C    -6.813000000     3.295000000     1.444000000
O    -6.227000000     4.470000000     1.009000000
C    -4.856000000     4.713000000     0.895000000
C    -4.345000000     5.321000000    -0.228000000
H    -5.051000000     5.648000000    -0.987000000
C    -2.952000000     5.498000000    -0.533000000
O    -2.588000000     6.093000000    -1.773000000
C    -1.306000000     5.901000000    -2.251000000
C    -0.997000000     4.824000000    -3.060000000
H    -1.757000000     4.062000000    -3.213000000
C    -0.274000000     6.802000000    -1.840000000
H    -0.522000000     7.561000000    -1.103000000
C     1.047000000     6.654000000    -2.430000000
H     1.833000000     7.375000000    -2.220000000
C     1.288000000     5.589000000    -3.286000000
H     2.202000000     5.419000000    -3.849000000
C     0.276000000     4.643000000    -3.549000000
O     0.566000000     3.477000000    -4.227000000
C     1.664000000     2.714000000    -4.009000000
C     2.454000000     2.178000000    -5.006000000
H     2.143000000     2.414000000    -6.020000000
C     3.574000000     1.388000000    -4.646000000
O     4.175000000     0.680000000    -5.557000000
C     4.693000000    -0.567000000    -5.264000000
C     6.086000000    -0.703000000    -5.110000000
H     6.737000000     0.156000000    -4.970000000
C     6.668000000    -1.986000000    -5.044000000
H     7.751000000    -2.080000000    -5.038000000
C     5.845000000    -3.112000000    -5.253000000
H     6.254000000    -4.119000000    -5.261000000
C     4.477000000    -2.994000000    -5.307000000
C     3.952000000    -1.742000000    -5.240000000
H     2.867000000    -1.702000000    -5.290000000
C    -0.230000000    -1.407000000    -3.006000000
H     0.304000000    -1.751000000    -3.887000000
C     0.596000000    -0.986000000    -1.946000000
H     1.675000000    -1.002000000    -2.077000000
C     0.041000000    -0.486000000    -0.762000000
H     0.640000000    -0.233000000     0.086000000
C    -1.322000000    -0.405000000    -0.584000000
H    -1.747000000     0.039000000     0.313000000
C    -2.191000000    -0.823000000    -1.623000000
H    -3.272000000    -0.766000000    -1.515000000
C    -1.601000000    -1.211000000    -2.904000000
C    -2.457000000    -1.456000000    -4.189000000
O    -3.528000000    -0.916000000    -4.416000000
O    -2.006000000    -2.082000000    -5.076000000
O    -3.571000000    -6.716000000    -6.824000000
H    -4.204000000    -6.162000000    -6.369000000
H    -2.718000000    -6.377000000    -6.554000000
O     1.354000000     1.652000000    -8.316000000
H     0.403000000     1.547000000    -8.284000000
H     1.486000000     2.573000000    -8.541000000
O    -1.683000000     0.852000000    -8.934000000
H    -1.586000000    -0.035000000    -8.585000000
H    -2.296000000     1.279000000    -8.335000000
O    -5.355000000    -2.779000000    -4.185000000
H    -5.100000000    -3.044000000    -3.302000000
H    -4.754000000    -2.067000000    -4.405000000
O    -2.910000000     2.981000000    -5.264000000
H    -2.074000000     2.540000000    -5.410000000
H    -3.545000000     2.270000000    -5.178000000
O    -5.687000000     0.451000000    -7.895000000
H    -5.295000000     1.287000000    -7.644000000
H    -5.194000000    -0.203000000    -7.400000000
O    -3.822000000     2.619000000    -8.241000000
H    -4.342000000     3.157000000    -7.645000000
H    -4.142000000     2.851000000    -9.113000000
O    -0.963000000     0.990000000    -5.450000000
H    -0.432000000     0.862000000    -4.664000000
H    -1.151000000     0.103000000    -5.759000000
O     1.477000000    -1.160000000    -7.893000000
H     2.345000000    -1.522000000    -8.071000000
H     1.555000000    -0.232000000    -8.115000000
O    -4.241000000    -2.092000000    -6.862000000
H    -3.337000000    -2.095000000    -7.179000000
H    -4.171000000    -1.835000000    -5.942000000
O    -1.079000000    -1.406000000    -7.562000000
H    -0.144000000    -1.607000000    -7.527000000
H    -1.420000000    -1.704000000    -6.718000000
O    -5.353000000    -5.463000000    -5.487000000
H    -5.712000000    -4.878000000    -6.154000000
H    -5.744000000    -5.160000000    -4.667000000
O    -2.700000000    -3.379000000    -9.398000000
H    -2.274000000    -3.734000000    -8.618000000
H    -1.986000000    -3.245000000   -10.022000000
O     1.213000000    -3.917000000    -7.920000000
H     2.081000000    -4.088000000    -8.285000000
H     1.098000000    -2.971000000    -8.008000000
O    -4.808000000     1.390000000    -4.543000000
H    -4.389000000     0.536000000    -4.434000000
H    -5.716000000     1.246000000    -4.278000000
O    -1.698000000    -4.366000000    -6.988000000
H    -2.130000000    -3.827000000    -6.325000000
H    -0.772000000    -4.345000000    -6.748000000
O    -7.751000000    -4.548000000    -3.971000000
H    -7.076000000    -3.948000000    -4.288000000
H    -8.575000000    -4.159000000    -4.265000000
O    -6.290000000    -3.565000000    -7.598000000
H    -6.663000000    -3.373000000    -8.459000000
H    -5.377000000    -3.283000000    -7.665000000
O    -4.169000000     2.603000000    -2.268000000
H    -3.275000000     2.313000000    -2.087000000
H    -4.291000000     2.434000000    -3.202000000
