215
-1462.52684
C    -4.755000000    -1.167000000     1.320000000
H    -4.915000000    -0.255000000     1.890000000
C    -3.787000000    -2.085000000     1.633000000
C    -3.701000000    -3.297000000     0.927000000
H    -2.911000000    -4.001000000     1.174000000
C    -2.685000000    -1.788000000     2.549000000
O    -3.101000000    -0.863000000     3.603000000
H    -1.823000000    -1.411000000     1.980000000
O    -2.168000000    -2.952000000     3.262000000
C    -0.824000000    -3.079000000     3.440000000
C    -0.194000000    -3.929000000     2.557000000
H    -0.739000000    -4.629000000     1.930000000
C     1.200000000    -3.792000000     2.399000000
O     1.753000000    -4.477000000     1.402000000
C     1.905000000    -2.888000000     3.172000000
C     3.402000000    -2.851000000     3.185000000
H     3.718000000    -2.515000000     4.175000000
C     3.954000000    -1.892000000     2.162000000
C     4.181000000    -0.555000000     2.621000000
H     4.097000000    -0.266000000     3.666000000
H     3.862000000    -3.840000000     3.138000000
C     1.264000000    -2.144000000     4.189000000
H     1.747000000    -1.471000000     4.893000000
C    -0.108000000    -2.198000000     4.268000000
C    -0.874000000    -1.315000000     5.233000000
H    -0.326000000    -1.067000000     6.144000000
H    -1.814000000    -1.770000000     5.555000000
C    -1.232000000     0.038000000     4.648000000
C    -0.330000000     1.095000000     4.712000000
H     0.607000000     1.031000000     5.257000000
C    -2.381000000     0.197000000     3.916000000
C    -2.727000000     1.447000000     3.363000000
H    -3.649000000     1.568000000     2.799000000
C    -1.810000000     2.490000000     3.449000000
O    -2.087000000     3.637000000     2.788000000
C    -1.298000000     3.827000000     1.570000000
C    -2.184000000     4.470000000     0.505000000
C    -1.708000000     5.423000000    -0.367000000
H    -0.743000000     5.899000000    -0.211000000
C    -3.411000000     3.956000000     0.210000000
H    -3.837000000     3.114000000     0.749000000
O    -0.116000000     4.579000000     1.805000000
H    -1.066000000     2.813000000     1.213000000
C    -0.667000000     2.333000000     4.224000000
C     0.350000000     3.463000000     4.403000000
H     0.788000000     3.269000000     5.384000000
H    -0.103000000     4.456000000     4.432000000
C     1.371000000     3.359000000     3.184000000
C     2.592000000     2.668000000     3.262000000
H     2.879000000     2.180000000     4.190000000
C     1.048000000     3.942000000     1.957000000
C     1.820000000     3.851000000     0.839000000
H     1.608000000     4.360000000    -0.097000000
C     3.068000000     3.289000000     0.949000000
O     3.903000000     3.137000000    -0.089000000
C     3.687000000     1.949000000    -0.863000000
C     3.422000000     2.123000000    -2.360000000
C     2.608000000     3.140000000    -2.788000000
H     2.323000000     3.905000000    -2.071000000
C     3.839000000     1.121000000    -3.245000000
H     4.477000000     0.275000000    -3.003000000
O     4.832000000     1.078000000    -0.602000000
H     2.782000000     1.479000000    -0.451000000
C     3.392000000     2.639000000     2.136000000
C     4.694000000     1.795000000     2.221000000
H     4.922000000     1.760000000     3.289000000
H     5.498000000     2.292000000     1.675000000
C     4.546000000     0.395000000     1.697000000
C     4.703000000     0.074000000     0.343000000
C     4.494000000    -1.218000000    -0.076000000
H     4.438000000    -1.415000000    -1.143000000
C     4.128000000    -2.256000000     0.849000000
O     3.626000000    -3.420000000     0.291000000
C     2.236000000    -3.758000000     0.284000000
H     1.654000000    -2.827000000     0.217000000
C     1.943000000    -4.441000000    -1.001000000
C     1.018000000    -5.536000000    -1.015000000
H     0.707000000    -5.986000000    -0.075000000
C     2.383000000    -3.917000000    -2.299000000
H     2.832000000    -2.927000000    -2.331000000
C     2.027000000    -4.614000000    -3.468000000
O     2.393000000    -4.199000000    -4.749000000
C     1.072000000    -5.612000000    -3.432000000
H     0.732000000    -6.131000000    -4.325000000
C     0.561000000    -6.023000000    -2.207000000
O    -0.307000000    -7.113000000    -2.117000000
C    -1.434000000    -6.949000000    -1.403000000
C    -2.253000000    -5.835000000    -1.509000000
H    -2.055000000    -5.078000000    -2.264000000
C    -1.844000000    -7.968000000    -0.473000000
H    -1.215000000    -8.843000000    -0.334000000
C    -2.995000000    -7.823000000     0.230000000
H    -3.218000000    -8.584000000     0.973000000
C    -3.811000000    -6.745000000     0.085000000
H    -4.728000000    -6.600000000     0.650000000
C    -3.466000000    -5.731000000    -0.817000000
O    -4.313000000    -4.677000000    -1.085000000
C    -4.568000000    -3.631000000    -0.193000000
C    -5.583000000    -2.664000000    -0.411000000
H    -6.296000000    -2.911000000    -1.194000000
C    -5.721000000    -1.469000000     0.360000000
O    -6.642000000    -0.566000000    -0.037000000
C    -6.664000000     0.761000000     0.304000000
C    -6.174000000     1.665000000    -0.624000000
H    -5.714000000     1.246000000    -1.516000000
C    -7.246000000     1.136000000     1.516000000
H    -7.552000000     0.467000000     2.316000000
C    -7.186000000     2.503000000     1.830000000
H    -7.465000000     2.779000000     2.844000000
C    -6.550000000     3.421000000     0.932000000
H    -6.423000000     4.481000000     1.138000000
C    -6.165000000     2.955000000    -0.361000000
O    -5.406000000     3.763000000    -1.218000000
C    -4.228000000     4.434000000    -0.907000000
C    -3.748000000     5.373000000    -1.778000000
H    -4.297000000     5.769000000    -2.628000000
C    -2.426000000     5.902000000    -1.525000000
O    -1.948000000     6.855000000    -2.372000000
C    -0.672000000     6.728000000    -2.777000000
C    -0.243000000     5.530000000    -3.377000000
H    -1.065000000     4.863000000    -3.624000000
C     0.335000000     7.679000000    -2.627000000
H     0.162000000     8.699000000    -2.291000000
C     1.657000000     7.543000000    -3.014000000
H     2.425000000     8.305000000    -2.906000000
C     2.038000000     6.327000000    -3.504000000
H     3.078000000     6.156000000    -3.769000000
C     1.093000000     5.372000000    -3.819000000
O     1.422000000     4.248000000    -4.616000000
C     2.133000000     3.230000000    -4.094000000
C     2.521000000     2.222000000    -4.965000000
H     2.203000000     2.225000000    -6.005000000
C     3.357000000     1.206000000    -4.561000000
O     3.791000000     0.316000000    -5.500000000
C     4.075000000    -1.012000000    -5.339000000
C     5.410000000    -1.401000000    -5.184000000
H     6.196000000    -0.670000000    -5.356000000
C     5.766000000    -2.732000000    -4.852000000
H     6.815000000    -3.009000000    -4.788000000
C     4.722000000    -3.668000000    -4.701000000
H     4.905000000    -4.675000000    -4.336000000
C     3.425000000    -3.264000000    -4.914000000
C     3.054000000    -1.984000000    -5.239000000
H     2.022000000    -1.645000000    -5.196000000
C    -0.105000000    -1.606000000    -2.665000000
H     0.484000000    -2.113000000    -3.425000000
C     0.622000000    -0.951000000    -1.674000000
H     1.703000000    -1.034000000    -1.598000000
C    -0.027000000    -0.142000000    -0.740000000
H     0.545000000     0.381000000     0.064000000
C    -1.429000000    -0.001000000    -0.783000000
H    -1.943000000     0.592000000    -0.031000000
C    -2.117000000    -0.742000000    -1.743000000
H    -3.192000000    -0.582000000    -1.732000000
C    -1.492000000    -1.470000000    -2.747000000
C    -2.253000000    -2.204000000    -3.852000000
O    -3.320000000    -1.756000000    -4.221000000
O    -1.673000000    -2.920000000    -4.658000000
O    -3.945000000    -5.179000000    -4.468000000
H    -3.463000000    -4.352000000    -4.444000000
H    -4.182000000    -5.290000000    -5.389000000
O    -8.063000000    -4.012000000    -4.294000000
H    -7.938000000    -3.230000000    -3.756000000
H    -7.557000000    -4.692000000    -3.848000000
O    -5.572000000    -2.000000000    -5.426000000
H    -4.784000000    -2.086000000    -4.889000000
H    -6.288000000    -2.250000000    -4.842000000
O     1.433000000     0.241000000    -7.655000000
H     0.838000000    -0.331000000    -7.171000000
H     2.001000000     0.620000000    -6.984000000
O    -1.940000000     2.905000000    -5.776000000
H    -1.586000000     2.177000000    -5.267000000
H    -2.636000000     2.513000000    -6.304000000
O    -3.622000000     1.208000000    -6.976000000
H    -3.610000000     1.482000000    -7.893000000
H    -3.586000000     0.252000000    -7.012000000
O    -6.836000000    -5.915000000    -3.116000000
H    -7.010000000    -6.829000000    -3.341000000
H    -5.889000000    -5.877000000    -2.984000000
O    -0.758000000     1.331000000    -3.733000000
H    -1.021000000     0.723000000    -3.043000000
H     0.140000000     1.574000000    -3.509000000
O    -4.633000000    -4.672000000    -7.232000000
H    -5.337000000    -4.086000000    -7.509000000
H    -3.865000000    -4.370000000    -7.718000000
O    -6.982000000    -3.262000000    -7.727000000
H    -7.094000000    -2.349000000    -7.991000000
H    -6.836000000    -3.222000000    -6.782000000
O    -2.700000000    -7.933000000    -4.534000000
H    -3.387000000    -8.143000000    -3.902000000
H    -2.727000000    -6.979000000    -4.609000000
O    -3.227000000    -1.493000000    -7.054000000
H    -3.522000000    -1.781000000    -6.190000000
H    -2.801000000    -2.263000000    -7.431000000
O    -0.698000000    -0.950000000    -6.179000000
H    -0.731000000    -1.731000000    -5.627000000
H    -1.600000000    -0.828000000    -6.476000000
O    -2.308000000    -4.021000000    -8.860000000
H    -1.695000000    -4.409000000    -8.235000000
H    -2.482000000    -4.720000000    -9.490000000
O    -4.761000000     0.724000000    -4.384000000
H    -4.359000000    -0.145000000    -4.358000000
H    -4.250000000     1.204000000    -5.035000000
O    -1.025000000    -4.965000000    -6.282000000
H    -1.347000000    -4.346000000    -5.627000000
H    -0.309000000    -4.503000000    -6.717000000
O    -7.904000000    -1.752000000    -3.053000000
H    -8.771000000    -1.536000000    -3.398000000
H    -7.506000000    -0.904000000    -2.858000000
O    -7.493000000     0.971000000    -3.717000000
H    -6.607000000     0.747000000    -4.004000000
H    -8.025000000     0.906000000    -4.510000000
O    -6.471000000    -0.470000000    -7.612000000
H    -5.985000000    -0.865000000    -6.889000000
H    -5.798000000    -0.216000000    -8.244000000
