215
-1464.63814
C    -4.836000000    -1.551000000     1.697000000
H    -4.930000000    -0.675000000     2.334000000
C    -3.725000000    -2.335000000     1.775000000
C    -3.554000000    -3.355000000     0.890000000
H    -2.602000000    -3.861000000     1.027000000
C    -2.550000000    -1.818000000     2.683000000
O    -3.058000000    -0.875000000     3.752000000
H    -1.870000000    -1.371000000     1.942000000
O    -1.916000000    -2.944000000     3.296000000
C    -0.582000000    -2.986000000     3.342000000
C     0.094000000    -3.803000000     2.427000000
H    -0.509000000    -4.478000000     1.824000000
C     1.503000000    -3.760000000     2.359000000
O     2.098000000    -4.492000000     1.390000000
C     2.198000000    -2.846000000     3.136000000
C     3.702000000    -2.788000000     3.087000000
H     4.160000000    -2.516000000     4.041000000
C     4.156000000    -1.775000000     2.056000000
C     4.320000000    -0.430000000     2.479000000
H     4.200000000    -0.197000000     3.534000000
H     4.093000000    -3.794000000     2.920000000
C     1.510000000    -2.130000000     4.149000000
H     2.036000000    -1.358000000     4.705000000
C     0.105000000    -2.239000000     4.279000000
C    -0.626000000    -1.412000000     5.290000000
H     0.021000000    -1.316000000     6.165000000
H    -1.532000000    -1.896000000     5.661000000
C    -1.032000000    -0.044000000     4.794000000
C    -0.166000000     1.030000000     4.823000000
H     0.842000000     0.846000000     5.186000000
C    -2.256000000     0.165000000     4.176000000
C    -2.601000000     1.439000000     3.709000000
H    -3.549000000     1.525000000     3.184000000
C    -1.696000000     2.491000000     3.743000000
O    -2.107000000     3.591000000     3.019000000
C    -1.363000000     3.755000000     1.795000000
C    -2.241000000     4.236000000     0.560000000
C    -1.563000000     4.841000000    -0.528000000
H    -0.494000000     5.032000000    -0.522000000
C    -3.550000000     3.798000000     0.421000000
H    -3.866000000     3.074000000     1.167000000
O    -0.293000000     4.605000000     2.014000000
H    -0.928000000     2.773000000     1.554000000
C    -0.457000000     2.346000000     4.358000000
C     0.605000000     3.457000000     4.367000000
H     1.214000000     3.371000000     5.270000000
H     0.033000000     4.373000000     4.525000000
C     1.412000000     3.461000000     3.113000000
C     2.627000000     2.806000000     3.184000000
H     2.893000000     2.127000000     3.989000000
C     0.913000000     3.948000000     1.945000000
C     1.695000000     3.992000000     0.791000000
H     1.367000000     4.439000000    -0.144000000
C     2.934000000     3.353000000     0.878000000
O     3.689000000     3.166000000    -0.292000000
C     3.573000000     1.968000000    -1.034000000
C     3.249000000     2.359000000    -2.485000000
C     2.927000000     3.676000000    -2.928000000
H     2.889000000     4.511000000    -2.233000000
C     2.994000000     1.200000000    -3.310000000
H     3.204000000     0.181000000    -2.993000000
O     4.748000000     1.195000000    -0.801000000
H     2.727000000     1.395000000    -0.626000000
C     3.445000000     2.767000000     2.048000000
C     4.779000000     2.040000000     1.996000000
H     5.281000000     2.081000000     2.965000000
H     5.548000000     2.493000000     1.367000000
C     4.598000000     0.583000000     1.577000000
C     4.736000000     0.235000000     0.196000000
C     4.605000000    -1.135000000    -0.198000000
H     4.801000000    -1.347000000    -1.246000000
C     4.271000000    -2.111000000     0.746000000
O     3.961000000    -3.367000000     0.253000000
C     2.452000000    -3.724000000     0.274000000
H     1.858000000    -2.803000000     0.368000000
C     1.951000000    -4.426000000    -1.025000000
C     0.908000000    -5.353000000    -1.034000000
H     0.555000000    -5.691000000    -0.063000000
C     2.530000000    -4.098000000    -2.234000000
H     3.353000000    -3.390000000    -2.184000000
C     2.115000000    -4.635000000    -3.451000000
O     2.965000000    -4.448000000    -4.594000000
C     1.134000000    -5.626000000    -3.410000000
H     0.824000000    -6.221000000    -4.265000000
C     0.433000000    -5.959000000    -2.227000000
O    -0.464000000    -7.017000000    -2.221000000
C    -1.579000000    -6.906000000    -1.430000000
C    -2.366000000    -5.816000000    -1.608000000
H    -2.055000000    -5.013000000    -2.273000000
C    -1.909000000    -7.954000000    -0.591000000
H    -1.205000000    -8.766000000    -0.431000000
C    -3.104000000    -7.781000000     0.127000000
H    -3.251000000    -8.532000000     0.900000000
C    -3.979000000    -6.742000000    -0.081000000
H    -4.906000000    -6.639000000     0.478000000
C    -3.560000000    -5.715000000    -0.927000000
O    -4.268000000    -4.586000000    -1.036000000
C    -4.426000000    -3.545000000    -0.181000000
C    -5.555000000    -2.759000000    -0.291000000
H    -6.379000000    -2.954000000    -0.973000000
C    -5.696000000    -1.757000000     0.672000000
O    -6.862000000    -1.014000000     0.485000000
C    -6.873000000     0.334000000     0.650000000
C    -6.088000000     1.143000000    -0.185000000
H    -5.392000000     0.604000000    -0.824000000
C    -7.815000000     0.893000000     1.497000000
H    -8.425000000     0.396000000     2.246000000
C    -7.858000000     2.292000000     1.583000000
H    -8.428000000     2.802000000     2.356000000
C    -7.091000000     3.089000000     0.750000000
H    -7.170000000     4.169000000     0.851000000
C    -6.244000000     2.495000000    -0.172000000
O    -5.466000000     3.275000000    -1.050000000
C    -4.228000000     3.858000000    -0.776000000
C    -3.674000000     4.555000000    -1.822000000
H    -4.205000000     4.693000000    -2.760000000
C    -2.392000000     5.078000000    -1.639000000
O    -1.893000000     5.767000000    -2.731000000
C    -0.637000000     6.163000000    -2.887000000
C     0.224000000     5.369000000    -3.712000000
H    -0.039000000     4.364000000    -4.032000000
C    -0.192000000     7.398000000    -2.374000000
H    -0.861000000     8.050000000    -1.818000000
C     1.094000000     7.828000000    -2.714000000
H     1.478000000     8.729000000    -2.242000000
C     1.898000000     7.028000000    -3.535000000
H     2.888000000     7.362000000    -3.838000000
C     1.452000000     5.815000000    -4.088000000
O     2.297000000     4.982000000    -4.822000000
C     2.651000000     3.795000000    -4.279000000
C     2.664000000     2.710000000    -5.163000000
H     2.456000000     2.829000000    -6.224000000
C     2.802000000     1.453000000    -4.658000000
O     2.774000000     0.424000000    -5.488000000
C     3.468000000    -0.754000000    -5.160000000
C     4.840000000    -0.757000000    -5.013000000
H     5.343000000     0.193000000    -5.172000000
C     5.602000000    -1.903000000    -4.925000000
H     6.683000000    -1.956000000    -4.823000000
C     4.956000000    -3.113000000    -4.787000000
H     5.582000000    -4.001000000    -4.768000000
C     3.548000000    -3.212000000    -4.775000000
C     2.735000000    -2.017000000    -4.997000000
H     1.658000000    -2.071000000    -5.134000000
C    -0.238000000    -1.151000000    -2.247000000
H     0.143000000    -1.714000000    -3.096000000
C     0.631000000    -0.557000000    -1.349000000
H     1.682000000    -0.811000000    -1.460000000
C     0.219000000    -0.043000000    -0.123000000
H     1.017000000     0.265000000     0.538000000
C    -1.141000000     0.215000000     0.057000000
H    -1.570000000     0.831000000     0.843000000
C    -2.039000000    -0.209000000    -0.926000000
H    -3.086000000    -0.013000000    -0.710000000
C    -1.603000000    -0.913000000    -2.090000000
C    -2.558000000    -1.493000000    -3.045000000
O    -3.736000000    -1.150000000    -3.022000000
O    -2.123000000    -2.282000000    -3.908000000
O    -3.936000000    -3.969000000    -4.751000000
H    -3.331000000    -3.320000000    -4.392000000
H    -4.712000000    -3.906000000    -4.194000000
O    -1.363000000     0.341000000    -9.320000000
H    -1.304000000     0.466000000    -8.373000000
H    -2.269000000     0.564000000    -9.535000000
O    -6.124000000    -1.780000000    -3.540000000
H    -5.187000000    -1.643000000    -3.403000000
H    -6.535000000    -1.437000000    -2.747000000
O    -0.787000000     1.522000000    -5.123000000
H    -0.629000000     1.944000000    -4.278000000
H    -1.740000000     1.474000000    -5.192000000
O    -3.333000000     1.406000000    -6.432000000
H    -3.720000000     1.764000000    -7.231000000
H    -3.223000000     0.473000000    -6.617000000
O    -8.051000000    -4.923000000    -2.211000000
H    -8.212000000    -4.009000000    -1.976000000
H    -7.814000000    -4.893000000    -3.138000000
O    -0.373000000     3.174000000    -7.243000000
H    -1.087000000     3.808000000    -7.173000000
H    -0.468000000     2.621000000    -6.468000000
O    -1.490000000    -7.900000000    -4.621000000
H    -1.028000000    -7.277000000    -4.060000000
H    -2.411000000    -7.649000000    -4.550000000
O    -1.533000000     2.219000000    -2.626000000
H    -1.252000000     1.441000000    -2.144000000
H    -2.471000000     2.088000000    -2.765000000
O    -7.397000000    -4.122000000    -4.643000000
H    -7.947000000    -3.662000000    -5.277000000
H    -7.061000000    -3.430000000    -4.072000000
O    -2.409000000    -1.434000000    -6.429000000
H    -2.511000000    -1.626000000    -5.497000000
H    -1.543000000    -1.774000000    -6.650000000
O     0.508000000    -0.230000000    -7.040000000
H     1.234000000    -0.609000000    -6.543000000
H    -0.056000000     0.165000000    -6.375000000
O    -4.459000000    -3.172000000    -7.502000000
H    -4.318000000    -3.780000000    -6.776000000
H    -3.963000000    -2.390000000    -7.260000000
O     0.165000000    -3.599000000    -8.183000000
H    -0.324000000    -3.864000000    -7.404000000
H     0.850000000    -4.262000000    -8.273000000
O    -7.169000000     1.845000000    -3.226000000
H    -7.331000000     2.740000000    -2.926000000
H    -6.242000000     1.696000000    -3.042000000
O    -4.445000000     1.418000000    -3.473000000
H    -4.093000000     0.533000000    -3.381000000
H    -4.412000000     1.593000000    -4.413000000
O    -1.168000000    -4.243000000    -5.735000000
H    -1.276000000    -3.733000000    -4.933000000
H    -1.923000000    -4.831000000    -5.749000000
O    -8.415000000    -2.197000000    -1.853000000
H    -8.834000000    -1.440000000    -2.262000000
H    -8.112000000    -1.874000000    -1.004000000
O    -6.722000000    -1.157000000    -6.407000000
H    -7.534000000    -1.629000000    -6.220000000
H    -6.179000000    -1.296000000    -5.632000000
