215
-1443.81002
C    -4.544000000    -2.164000000     1.115000000
H    -4.856000000    -1.498000000     1.915000000
C    -3.380000000    -2.886000000     1.317000000
C    -3.080000000    -3.897000000     0.387000000
H    -2.137000000    -4.438000000     0.396000000
C    -2.311000000    -2.348000000     2.410000000
O    -2.988000000    -1.412000000     3.303000000
H    -1.494000000    -1.896000000     1.828000000
O    -1.778000000    -3.415000000     3.123000000
C    -0.395000000    -3.344000000     3.341000000
C     0.394000000    -3.950000000     2.380000000
H    -0.117000000    -4.339000000     1.502000000
C     1.784000000    -3.832000000     2.461000000
O     2.546000000    -4.286000000     1.376000000
C     2.433000000    -3.008000000     3.415000000
C     3.894000000    -2.561000000     3.343000000
H     4.149000000    -2.289000000     4.369000000
C     4.150000000    -1.447000000     2.366000000
C     4.157000000    -0.109000000     2.875000000
H     4.166000000     0.093000000     3.943000000
H     4.519000000    -3.426000000     3.110000000
C     1.574000000    -2.355000000     4.280000000
H     2.037000000    -1.710000000     5.023000000
C     0.208000000    -2.553000000     4.292000000
C    -0.669000000    -1.795000000     5.210000000
H    -0.312000000    -1.750000000     6.241000000
H    -1.533000000    -2.450000000     5.340000000
C    -1.183000000    -0.427000000     4.648000000
C    -0.555000000     0.772000000     4.937000000
H     0.339000000     0.784000000     5.556000000
C    -2.342000000    -0.329000000     3.884000000
C    -2.809000000     0.890000000     3.421000000
H    -3.716000000     0.924000000     2.822000000
C    -2.051000000     2.038000000     3.612000000
O    -2.398000000     3.182000000     2.990000000
C    -1.706000000     3.513000000     1.756000000
C    -2.661000000     3.941000000     0.671000000
C    -2.352000000     5.027000000    -0.157000000
H    -1.495000000     5.689000000    -0.066000000
C    -3.831000000     3.204000000     0.398000000
H    -3.976000000     2.304000000     0.991000000
O    -0.839000000     4.588000000     2.140000000
H    -1.026000000     2.695000000     1.475000000
C    -0.913000000     2.023000000     4.407000000
C     0.033000000     3.268000000     4.604000000
H     0.529000000     3.311000000     5.576000000
H    -0.667000000     4.098000000     4.719000000
C     0.944000000     3.539000000     3.468000000
C     2.260000000     3.118000000     3.565000000
H     2.603000000     2.733000000     4.522000000
C     0.488000000     4.156000000     2.294000000
C     1.342000000     4.227000000     1.188000000
H     0.958000000     4.499000000     0.208000000
C     2.583000000     3.641000000     1.245000000
O     3.233000000     3.621000000    -0.037000000
C     3.421000000     2.397000000    -0.755000000
C     3.233000000     2.704000000    -2.263000000
C     2.409000000     3.768000000    -2.689000000
H     2.016000000     4.352000000    -1.861000000
C     3.846000000     1.900000000    -3.252000000
H     4.505000000     1.078000000    -2.985000000
O     4.598000000     1.756000000    -0.284000000
H     2.661000000     1.684000000    -0.403000000
C     3.037000000     3.009000000     2.409000000
C     4.413000000     2.336000000     2.526000000
H     4.777000000     2.266000000     3.553000000
H     5.103000000     2.906000000     1.901000000
C     4.380000000     0.956000000     1.964000000
C     4.465000000     0.715000000     0.602000000
C     4.547000000    -0.607000000     0.111000000
H     4.340000000    -0.806000000    -0.938000000
C     4.383000000    -1.710000000     0.980000000
O     4.150000000    -2.954000000     0.347000000
C     2.807000000    -3.356000000     0.307000000
H     2.241000000    -2.447000000     0.559000000
C     2.378000000    -3.859000000    -1.034000000
C     1.615000000    -5.001000000    -1.153000000
H     1.554000000    -5.668000000    -0.297000000
C     2.648000000    -3.126000000    -2.221000000
H     3.257000000    -2.229000000    -2.157000000
C     2.136000000    -3.570000000    -3.411000000
O     2.417000000    -2.971000000    -4.613000000
C     1.381000000    -4.746000000    -3.490000000
H     1.006000000    -5.124000000    -4.438000000
C     1.228000000    -5.508000000    -2.360000000
O     0.444000000    -6.703000000    -2.454000000
C    -0.730000000    -6.980000000    -1.882000000
C    -1.723000000    -5.994000000    -1.935000000
H    -1.375000000    -5.006000000    -2.226000000
C    -1.056000000    -8.322000000    -1.595000000
H    -0.400000000    -9.158000000    -1.826000000
C    -2.313000000    -8.660000000    -1.201000000
H    -2.535000000    -9.715000000    -1.055000000
C    -3.311000000    -7.674000000    -1.105000000
H    -4.274000000    -7.901000000    -0.654000000
C    -2.967000000    -6.359000000    -1.478000000
O    -3.982000000    -5.368000000    -1.401000000
C    -4.014000000    -4.211000000    -0.639000000
C    -5.223000000    -3.502000000    -0.700000000
H    -6.022000000    -3.836000000    -1.358000000
C    -5.447000000    -2.422000000     0.111000000
O    -6.628000000    -1.698000000     0.033000000
C    -6.768000000    -0.329000000     0.305000000
C    -6.292000000     0.594000000    -0.652000000
H    -5.775000000     0.340000000    -1.574000000
C    -7.181000000     0.138000000     1.577000000
H    -7.447000000    -0.603000000     2.326000000
C    -7.301000000     1.526000000     1.842000000
H    -7.731000000     1.832000000     2.792000000
C    -6.933000000     2.380000000     0.821000000
H    -6.910000000     3.464000000     0.906000000
C    -6.323000000     1.905000000    -0.321000000
O    -5.692000000     2.848000000    -1.123000000
C    -4.613000000     3.623000000    -0.703000000
C    -4.238000000     4.652000000    -1.514000000
H    -4.793000000     4.969000000    -2.393000000
C    -3.143000000     5.408000000    -1.208000000
O    -2.866000000     6.479000000    -2.004000000
C    -1.596000000     6.703000000    -2.459000000
C    -0.966000000     5.754000000    -3.296000000
H    -1.547000000     4.979000000    -3.790000000
C    -0.886000000     7.815000000    -1.985000000
H    -1.370000000     8.604000000    -1.415000000
C     0.494000000     7.852000000    -2.167000000
H     1.122000000     8.620000000    -1.723000000
C     1.138000000     6.820000000    -2.865000000
H     2.211000000     6.977000000    -2.946000000
C     0.417000000     5.856000000    -3.537000000
O     1.106000000     5.019000000    -4.398000000
C     1.999000000     3.957000000    -3.983000000
C     2.568000000     3.127000000    -4.936000000
H     2.394000000     3.349000000    -5.986000000
C     3.494000000     2.100000000    -4.591000000
O     4.232000000     1.391000000    -5.545000000
C     4.416000000     0.002000000    -5.461000000
C     5.683000000    -0.565000000    -5.648000000
H     6.536000000     0.045000000    -5.933000000
C     5.915000000    -1.883000000    -5.273000000
H     6.890000000    -2.337000000    -5.430000000
C     4.836000000    -2.689000000    -4.911000000
H     5.076000000    -3.728000000    -4.700000000
C     3.541000000    -2.180000000    -4.852000000
C     3.347000000    -0.844000000    -5.101000000
H     2.308000000    -0.544000000    -4.986000000
C     0.061000000    -0.877000000    -2.305000000
H     0.566000000    -1.257000000    -3.189000000
C     0.809000000    -0.352000000    -1.225000000
H     1.891000000    -0.279000000    -1.293000000
C     0.192000000     0.118000000    -0.059000000
H     0.796000000     0.624000000     0.758000000
C    -1.167000000     0.061000000     0.094000000
H    -1.715000000     0.432000000     0.957000000
C    -1.938000000    -0.322000000    -1.033000000
H    -2.996000000    -0.100000000    -0.917000000
C    -1.349000000    -0.704000000    -2.255000000
C    -2.228000000    -0.868000000    -3.506000000
O    -3.399000000    -0.727000000    -3.433000000
O    -1.739000000    -1.030000000    -4.622000000
O    -4.145000000    -2.527000000    -5.270000000
H    -3.691000000    -2.013000000    -4.602000000
H    -3.655000000    -2.358000000    -6.076000000
O    -0.373000000     0.138000000    -9.402000000
H    -0.378000000     0.226000000    -8.449000000
H     0.403000000     0.622000000    -9.684000000
O    -6.119000000    -1.186000000    -3.376000000
H    -5.965000000    -1.602000000    -4.224000000
H    -5.245000000    -0.963000000    -3.056000000
O    -1.619000000     2.602000000    -5.239000000
H    -1.224000000     2.679000000    -4.370000000
H    -2.537000000     2.836000000    -5.105000000
O    -4.125000000     3.808000000    -5.159000000
H    -4.101000000     4.764000000    -5.124000000
H    -4.932000000     3.606000000    -5.632000000
O    -5.317000000    -2.025000000    -8.333000000
H    -4.837000000    -2.233000000    -9.134000000
H    -4.695000000    -2.203000000    -7.627000000
O    -0.402000000     4.205000000    -7.390000000
H    -0.265000000     5.058000000    -6.978000000
H    -0.763000000     3.657000000    -6.693000000
O    -1.443000000    -6.120000000    -5.505000000
H    -2.343000000    -6.105000000    -5.180000000
H    -1.138000000    -5.218000000    -5.407000000
O    -0.656000000     2.064000000    -2.773000000
H     0.008000000     2.430000000    -2.189000000
H    -0.899000000     1.232000000    -2.367000000
O    -8.725000000    -1.278000000    -2.576000000
H    -9.092000000    -1.047000000    -3.430000000
H    -7.831000000    -0.937000000    -2.600000000
O    -6.800000000    -3.868000000    -5.413000000
H    -7.279000000    -3.551000000    -6.178000000
H    -5.896000000    -3.591000000    -5.564000000
O    -4.289000000    -6.057000000    -4.842000000
H    -4.368000000    -5.397000000    -4.153000000
H    -4.924000000    -6.731000000    -4.601000000
O    -2.630000000    -2.269000000    -7.633000000
H    -1.982000000    -2.578000000    -6.999000000
H    -2.115000000    -1.814000000    -8.300000000
O    -0.780000000     0.472000000    -6.694000000
H    -1.068000000     1.345000000    -6.427000000
H    -1.088000000    -0.106000000    -5.996000000
O     0.884000000    -3.098000000    -7.492000000
H     1.809000000    -2.855000000    -7.499000000
H     0.880000000    -4.032000000    -7.700000000
O    -6.488000000     0.098000000    -7.264000000
H    -5.714000000     0.424000000    -6.804000000
H    -6.146000000    -0.259000000    -8.083000000
O    -3.777000000     0.795000000    -5.781000000
H    -3.651000000     0.160000000    -5.076000000
H    -3.050000000     0.632000000    -6.382000000
O    -0.863000000    -3.386000000    -5.423000000
H    -1.246000000    -2.647000000    -4.952000000
H    -0.202000000    -2.991000000    -5.992000000
O    -6.225000000     1.777000000    -3.922000000
H    -5.788000000     0.926000000    -3.886000000
H    -5.553000000     2.377000000    -4.245000000
