215
-1455.37913
C    -5.109000000    -1.004000000     1.800000000
H    -4.979000000     0.059000000     1.990000000
C    -4.183000000    -1.872000000     2.386000000
C    -4.197000000    -3.213000000     2.052000000
H    -3.379000000    -3.785000000     2.483000000
C    -2.952000000    -1.300000000     3.085000000
O    -3.338000000     0.007000000     3.783000000
H    -2.151000000    -1.050000000     2.373000000
O    -2.405000000    -2.238000000     3.986000000
C    -1.034000000    -2.258000000     4.105000000
C    -0.417000000    -3.166000000     3.250000000
H    -0.992000000    -3.776000000     2.558000000
C     0.975000000    -3.206000000     3.177000000
O     1.403000000    -4.102000000     2.221000000
C     1.733000000    -2.349000000     3.976000000
C     3.291000000    -2.286000000     3.856000000
H     3.681000000    -1.690000000     4.684000000
C     3.803000000    -1.565000000     2.634000000
C     4.158000000    -0.197000000     2.666000000
H     4.259000000     0.280000000     3.637000000
H     3.715000000    -3.289000000     3.939000000
C     1.091000000    -1.435000000     4.814000000
H     1.634000000    -0.747000000     5.457000000
C    -0.322000000    -1.429000000     4.935000000
C    -0.966000000    -0.301000000     5.671000000
H    -0.257000000     0.093000000     6.402000000
H    -1.901000000    -0.589000000     6.155000000
C    -1.203000000     0.867000000     4.732000000
C    -0.214000000     1.857000000     4.622000000
H     0.656000000     1.861000000     5.272000000
C    -2.386000000     0.993000000     3.955000000
C    -2.539000000     2.057000000     3.079000000
H    -3.491000000     2.231000000     2.585000000
C    -1.536000000     3.013000000     2.998000000
O    -1.744000000     4.008000000     2.035000000
C    -1.007000000     3.853000000     0.839000000
C    -1.850000000     3.963000000    -0.424000000
C    -1.338000000     4.413000000    -1.627000000
H    -0.298000000     4.727000000    -1.620000000
C    -3.148000000     3.498000000    -0.476000000
H    -3.516000000     3.030000000     0.433000000
O     0.060000000     4.867000000     0.969000000
H    -0.609000000     2.828000000     0.856000000
C    -0.475000000     3.038000000     3.881000000
C     0.679000000     4.102000000     3.708000000
H     1.235000000     4.155000000     4.646000000
H     0.229000000     5.096000000     3.667000000
C     1.665000000     3.920000000     2.547000000
C     2.847000000     3.174000000     2.732000000
H     3.247000000     2.705000000     3.628000000
C     1.337000000     4.345000000     1.216000000
C     2.210000000     4.103000000     0.110000000
H     1.899000000     4.330000000    -0.907000000
C     3.343000000     3.293000000     0.307000000
O     3.902000000     2.801000000    -0.876000000
C     3.507000000     1.552000000    -1.413000000
C     3.475000000     1.590000000    -2.927000000
C     2.888000000     2.670000000    -3.582000000
H     2.604000000     3.594000000    -3.084000000
C     3.909000000     0.447000000    -3.683000000
H     4.356000000    -0.438000000    -3.238000000
O     4.497000000     0.487000000    -0.949000000
H     2.498000000     1.245000000    -1.101000000
C     3.699000000     2.850000000     1.603000000
C     4.886000000     1.945000000     1.730000000
H     5.479000000     2.035000000     2.643000000
H     5.676000000     2.137000000     1.002000000
C     4.527000000     0.456000000     1.523000000
C     4.434000000    -0.169000000     0.271000000
C     4.125000000    -1.439000000     0.178000000
H     3.914000000    -1.937000000    -0.765000000
C     3.813000000    -2.138000000     1.356000000
O     3.360000000    -3.428000000     1.237000000
C     1.977000000    -3.546000000     1.056000000
H     1.584000000    -2.519000000     1.075000000
C     1.607000000    -4.206000000    -0.265000000
C     0.300000000    -4.628000000    -0.484000000
H    -0.383000000    -4.491000000     0.351000000
C     2.457000000    -4.326000000    -1.364000000
H     3.483000000    -3.976000000    -1.284000000
C     1.992000000    -4.863000000    -2.600000000
O     2.849000000    -4.835000000    -3.697000000
C     0.666000000    -5.318000000    -2.663000000
H     0.247000000    -5.720000000    -3.582000000
C    -0.214000000    -5.139000000    -1.686000000
O    -1.524000000    -5.594000000    -1.794000000
C    -2.253000000    -6.056000000    -0.742000000
C    -3.428000000    -5.376000000    -0.354000000
H    -3.755000000    -4.469000000    -0.855000000
C    -1.906000000    -7.222000000    -0.011000000
H    -0.999000000    -7.804000000    -0.152000000
C    -2.735000000    -7.693000000     0.990000000
H    -2.506000000    -8.634000000     1.484000000
C    -3.872000000    -7.010000000     1.339000000
H    -4.479000000    -7.265000000     2.203000000
C    -4.223000000    -5.849000000     0.670000000
O    -5.361000000    -5.077000000     1.079000000
C    -5.288000000    -3.726000000     1.344000000
C    -6.331000000    -2.900000000     0.949000000
H    -7.218000000    -3.381000000     0.545000000
C    -6.179000000    -1.529000000     1.088000000
O    -7.190000000    -0.663000000     0.703000000
C    -6.998000000     0.637000000     0.515000000
C    -6.233000000     1.049000000    -0.555000000
H    -5.998000000     0.330000000    -1.336000000
C    -7.484000000     1.499000000     1.418000000
H    -8.156000000     1.213000000     2.223000000
C    -7.169000000     2.837000000     1.350000000
H    -7.637000000     3.529000000     2.045000000
C    -6.295000000     3.293000000     0.360000000
H    -6.091000000     4.357000000     0.274000000
C    -5.863000000     2.405000000    -0.630000000
O    -5.130000000     2.913000000    -1.684000000
C    -3.951000000     3.536000000    -1.640000000
C    -3.470000000     4.132000000    -2.797000000
H    -4.116000000     4.160000000    -3.670000000
C    -2.148000000     4.643000000    -2.725000000
O    -1.716000000     5.317000000    -3.837000000
C    -0.409000000     5.522000000    -4.190000000
C     0.434000000     4.589000000    -4.743000000
H     0.093000000     3.580000000    -4.959000000
C     0.077000000     6.850000000    -4.077000000
H    -0.574000000     7.587000000    -3.614000000
C     1.385000000     7.133000000    -4.348000000
H     1.712000000     8.147000000    -4.132000000
C     2.258000000     6.193000000    -4.930000000
H     3.326000000     6.351000000    -5.054000000
C     1.735000000     4.932000000    -5.156000000
O     2.493000000     3.872000000    -5.643000000
C     2.836000000     2.675000000    -4.963000000
C     3.293000000     1.604000000    -5.734000000
H     3.315000000     1.676000000    -6.818000000
C     3.811000000     0.453000000    -5.086000000
O     4.100000000    -0.692000000    -5.806000000
C     4.415000000    -1.930000000    -5.281000000
C     5.795000000    -2.235000000    -5.141000000
H     6.523000000    -1.612000000    -5.654000000
C     6.200000000    -3.243000000    -4.308000000
H     7.253000000    -3.457000000    -4.138000000
C     5.193000000    -4.093000000    -3.827000000
H     5.439000000    -5.015000000    -3.307000000
C     3.787000000    -3.880000000    -4.021000000
C     3.430000000    -2.778000000    -4.717000000
H     2.391000000    -2.466000000    -4.784000000
C    -0.321000000    -1.560000000    -1.618000000
H    -0.031000000    -2.180000000    -2.463000000
C     0.669000000    -0.999000000    -0.833000000
H     1.711000000    -1.196000000    -1.074000000
C     0.308000000    -0.272000000     0.327000000
H     1.066000000     0.189000000     0.998000000
C    -1.035000000     0.001000000     0.591000000
H    -1.287000000     0.469000000     1.539000000
C    -2.077000000    -0.441000000    -0.292000000
H    -3.139000000    -0.251000000    -0.159000000
C    -1.675000000    -1.243000000    -1.414000000
C    -2.677000000    -1.944000000    -2.347000000
O    -3.843000000    -1.715000000    -2.295000000
O    -2.301000000    -2.536000000    -3.373000000
O    -7.103000000    -1.255000000    -7.568000000
H    -6.406000000    -0.611000000    -7.696000000
H    -7.148000000    -1.375000000    -6.620000000
O    -4.153000000    -2.836000000    -5.367000000
H    -3.522000000    -2.762000000    -4.651000000
H    -4.983000000    -2.550000000    -4.986000000
O    -4.854000000    -4.358000000    -7.612000000
H    -5.045000000    -3.657000000    -8.235000000
H    -4.802000000    -3.917000000    -6.764000000
O    -6.278000000     3.052000000    -5.158000000
H    -5.404000000     3.112000000    -5.545000000
H    -6.185000000     2.410000000    -4.455000000
O    -5.829000000    -3.460000000    -2.155000000
H    -5.025000000    -2.962000000    -2.010000000
H    -6.375000000    -2.885000000    -2.691000000
O    -6.594000000    -1.539000000    -4.780000000
H    -5.855000000    -0.977000000    -4.547000000
H    -7.295000000    -1.272000000    -4.185000000
O     0.049000000     1.163000000    -6.108000000
H     0.706000000     0.591000000    -6.506000000
H    -0.032000000     1.895000000    -6.719000000
O    -0.212000000    -2.762000000    -4.995000000
H    -1.015000000    -2.683000000    -4.481000000
H    -0.250000000    -3.643000000    -5.367000000
O    -0.437000000    -5.366000000    -6.416000000
H    -0.788000000    -5.240000000    -7.298000000
H    -1.167000000    -5.734000000    -5.919000000
O    -3.783000000     2.867000000    -6.685000000
H    -3.516000000     3.609000000    -7.227000000
H    -2.959000000     2.477000000    -6.390000000
O    -6.679000000    -6.239000000    -1.552000000
H    -6.571000000    -5.390000000    -1.125000000
H    -5.793000000    -6.600000000    -1.596000000
O    -2.063000000     1.120000000    -4.069000000
H    -1.566000000     0.721000000    -3.356000000
H    -1.432000000     1.204000000    -4.784000000
O    -5.305000000     0.644000000    -7.852000000
H    -5.159000000     1.047000000    -6.996000000
H    -4.541000000     0.899000000    -8.370000000
O    -2.361000000    -7.002000000    -5.046000000
H    -2.938000000    -7.230000000    -5.774000000
H    -2.884000000    -6.416000000    -4.500000000
O    -1.974000000    -2.208000000    -7.509000000
H    -1.235000000    -1.766000000    -7.090000000
H    -2.325000000    -2.784000000    -6.831000000
O    -4.775000000     0.341000000    -3.686000000
H    -4.596000000    -0.365000000    -3.064000000
H    -3.937000000     0.793000000    -3.783000000
O    -3.720000000    -5.195000000    -3.545000000
H    -3.022000000    -4.542000000    -3.590000000
H    -4.323000000    -4.857000000    -2.883000000
O    -8.832000000    -0.980000000    -3.010000000
H    -9.401000000    -0.801000000    -3.758000000
H    -9.350000000    -1.556000000    -2.448000000
O    -4.682000000    -8.685000000    -2.204000000
H    -4.944000000    -8.784000000    -3.119000000
H    -3.844000000    -8.224000000    -2.243000000
