215
-1478.27572
C    -4.407000000    -1.316000000     1.843000000
H    -4.601000000    -0.455000000     2.478000000
C    -3.259000000    -2.031000000     2.105000000
C    -2.936000000    -3.069000000     1.226000000
H    -1.979000000    -3.581000000     1.283000000
C    -2.194000000    -1.504000000     3.090000000
O    -2.815000000    -0.697000000     4.110000000
H    -1.452000000    -0.949000000     2.497000000
O    -1.573000000    -2.633000000     3.719000000
C    -0.165000000    -2.526000000     3.739000000
C     0.567000000    -3.299000000     2.875000000
H     0.098000000    -4.035000000     2.228000000
C     1.916000000    -3.069000000     2.713000000
O     2.711000000    -3.807000000     1.824000000
C     2.562000000    -2.099000000     3.485000000
C     4.093000000    -1.896000000     3.265000000
H     4.500000000    -1.501000000     4.198000000
C     4.397000000    -0.994000000     2.093000000
C     4.529000000     0.334000000     2.338000000
H     4.264000000     0.683000000     3.333000000
H     4.512000000    -2.893000000     3.113000000
C     1.853000000    -1.368000000     4.389000000
H     2.327000000    -0.559000000     4.937000000
C     0.478000000    -1.576000000     4.517000000
C    -0.218000000    -0.687000000     5.530000000
H     0.516000000    -0.455000000     6.304000000
H    -0.948000000    -1.301000000     6.063000000
C    -0.809000000     0.508000000     4.856000000
C    -0.057000000     1.616000000     4.683000000
H     0.972000000     1.665000000     5.030000000
C    -2.092000000     0.505000000     4.291000000
C    -2.642000000     1.638000000     3.658000000
H    -3.691000000     1.605000000     3.373000000
C    -1.797000000     2.694000000     3.439000000
O    -2.287000000     3.669000000     2.573000000
C    -1.741000000     3.589000000     1.231000000
C    -2.772000000     3.992000000     0.196000000
C    -2.454000000     4.474000000    -1.101000000
H    -1.403000000     4.604000000    -1.347000000
C    -4.109000000     3.709000000     0.542000000
H    -4.409000000     3.334000000     1.517000000
O    -0.609000000     4.516000000     1.055000000
H    -1.448000000     2.532000000     1.149000000
C    -0.496000000     2.744000000     3.980000000
C     0.387000000     3.936000000     3.729000000
H     1.033000000     4.111000000     4.593000000
H    -0.188000000     4.860000000     3.820000000
C     1.144000000     3.747000000     2.430000000
C     2.442000000     3.248000000     2.453000000
H     2.852000000     2.899000000     3.398000000
C     0.627000000     4.051000000     1.176000000
C     1.374000000     4.112000000     0.032000000
H     0.882000000     4.360000000    -0.905000000
C     2.671000000     3.588000000     0.077000000
O     3.361000000     3.332000000    -1.098000000
C     3.437000000     1.979000000    -1.524000000
C     2.975000000     1.860000000    -2.951000000
C     2.189000000     2.897000000    -3.511000000
H     1.930000000     3.841000000    -3.038000000
C     3.261000000     0.683000000    -3.693000000
H     3.807000000    -0.118000000    -3.201000000
O     4.778000000     1.383000000    -1.309000000
H     2.680000000     1.385000000    -0.992000000
C     3.270000000     3.273000000     1.306000000
C     4.692000000     2.700000000     1.341000000
H     5.192000000     2.999000000     2.265000000
H     5.450000000     3.005000000     0.616000000
C     4.661000000     1.184000000     1.218000000
C     4.754000000     0.697000000    -0.123000000
C     4.683000000    -0.677000000    -0.274000000
H     4.864000000    -1.147000000    -1.237000000
C     4.514000000    -1.524000000     0.809000000
O     4.349000000    -2.856000000     0.459000000
C     3.020000000    -3.337000000     0.519000000
H     2.325000000    -2.510000000     0.311000000
C     2.694000000    -4.339000000    -0.595000000
C     1.760000000    -5.361000000    -0.355000000
H     1.335000000    -5.531000000     0.631000000
C     3.218000000    -4.273000000    -1.920000000
H     4.065000000    -3.603000000    -2.041000000
C     2.699000000    -5.076000000    -2.959000000
O     3.080000000    -4.987000000    -4.326000000
C     1.786000000    -6.078000000    -2.661000000
H     1.419000000    -6.839000000    -3.344000000
C     1.344000000    -6.163000000    -1.368000000
O     0.411000000    -7.141000000    -1.121000000
C    -0.753000000    -6.857000000    -0.440000000
C    -1.647000000    -5.866000000    -0.835000000
H    -1.305000000    -5.237000000    -1.654000000
C    -1.160000000    -7.680000000     0.613000000
H    -0.558000000    -8.569000000     0.783000000
C    -2.350000000    -7.453000000     1.289000000
H    -2.538000000    -8.178000000     2.076000000
C    -3.191000000    -6.392000000     0.966000000
H    -4.200000000    -6.326000000     1.363000000
C    -2.823000000    -5.589000000    -0.118000000
O    -3.600000000    -4.562000000    -0.577000000
C    -3.786000000    -3.465000000     0.224000000
C    -5.018000000    -2.832000000     0.102000000
H    -5.682000000    -3.247000000    -0.651000000
C    -5.335000000    -1.695000000     0.904000000
O    -6.547000000    -1.016000000     0.724000000
C    -6.749000000     0.246000000     1.139000000
C    -6.572000000     1.356000000     0.290000000
H    -6.217000000     1.147000000    -0.716000000
C    -7.462000000     0.478000000     2.325000000
H    -7.792000000    -0.296000000     3.012000000
C    -7.725000000     1.786000000     2.730000000
H    -8.369000000     1.944000000     3.592000000
C    -7.336000000     2.832000000     1.934000000
H    -7.584000000     3.831000000     2.283000000
C    -6.814000000     2.651000000     0.685000000
O    -6.424000000     3.729000000    -0.158000000
C    -5.086000000     3.982000000    -0.413000000
C    -4.733000000     4.582000000    -1.629000000
H    -5.522000000     4.908000000    -2.302000000
C    -3.435000000     4.788000000    -2.053000000
O    -3.179000000     5.381000000    -3.313000000
C    -1.944000000     5.551000000    -3.820000000
C    -1.201000000     4.473000000    -4.268000000
H    -1.645000000     3.481000000    -4.275000000
C    -1.395000000     6.863000000    -3.972000000
H    -1.919000000     7.775000000    -3.701000000
C    -0.097000000     7.055000000    -4.536000000
H     0.223000000     8.094000000    -4.550000000
C     0.666000000     5.934000000    -4.885000000
H     1.658000000     6.127000000    -5.287000000
C     0.129000000     4.649000000    -4.772000000
O     0.776000000     3.586000000    -5.421000000
C     1.675000000     2.713000000    -4.793000000
C     1.925000000     1.533000000    -5.528000000
H     1.586000000     1.509000000    -6.561000000
C     2.785000000     0.613000000    -4.977000000
O     3.059000000    -0.452000000    -5.854000000
C     3.796000000    -1.485000000    -5.469000000
C     5.166000000    -1.471000000    -5.323000000
H     5.695000000    -0.541000000    -5.514000000
C     5.829000000    -2.623000000    -4.871000000
H     6.908000000    -2.696000000    -4.757000000
C     5.143000000    -3.839000000    -4.625000000
H     5.698000000    -4.700000000    -4.261000000
C     3.784000000    -3.843000000    -4.735000000
C     3.079000000    -2.715000000    -5.224000000
H     1.993000000    -2.679000000    -5.214000000
C    -0.282000000    -1.648000000    -2.331000000
H     0.248000000    -2.338000000    -2.983000000
C     0.443000000    -0.820000000    -1.505000000
H     1.508000000    -0.610000000    -1.558000000
C    -0.238000000    -0.170000000    -0.512000000
H     0.161000000     0.561000000     0.215000000
C    -1.604000000    -0.283000000    -0.429000000
H    -2.047000000     0.442000000     0.249000000
C    -2.342000000    -0.997000000    -1.313000000
H    -3.402000000    -0.791000000    -1.437000000
C    -1.709000000    -1.759000000    -2.241000000
C    -2.469000000    -2.633000000    -3.215000000
O    -3.680000000    -2.440000000    -3.390000000
O    -1.922000000    -3.434000000    -3.916000000
O    -7.808000000    -1.000000000    -4.231000000
H    -8.129000000    -1.653000000    -3.609000000
H    -6.887000000    -0.880000000    -3.999000000
O    -6.892000000    -4.194000000    -6.228000000
H    -7.388000000    -4.507000000    -6.986000000
H    -5.978000000    -4.224000000    -6.511000000
O    -1.069000000    -4.385000000    -7.793000000
H    -0.509000000    -4.195000000    -7.040000000
H    -0.724000000    -5.204000000    -8.147000000
O    -5.749000000    -4.119000000    -3.027000000
H    -5.002000000    -3.520000000    -3.032000000
H    -6.512000000    -3.548000000    -2.934000000
O     2.049000000    -2.580000000    -7.914000000
H     2.003000000    -3.495000000    -8.192000000
H     1.761000000    -2.592000000    -7.001000000
O    -1.083000000    -1.609000000    -5.682000000
H    -1.682000000    -2.216000000    -5.247000000
H    -1.350000000    -1.627000000    -6.601000000
O    -3.259000000    -5.750000000    -4.447000000
H    -2.704000000    -4.983000000    -4.302000000
H    -4.153000000    -5.409000000    -4.407000000
O    -1.424000000    -7.461000000    -5.128000000
H    -1.751000000    -8.169000000    -4.573000000
H    -2.093000000    -6.779000000    -5.064000000
O    -5.228000000    -7.026000000    -2.699000000
H    -5.419000000    -6.101000000    -2.547000000
H    -4.480000000    -7.021000000    -3.296000000
O    -1.282000000     1.006000000    -3.680000000
H    -1.182000000     0.322000000    -3.018000000
H    -0.474000000     0.965000000    -4.192000000
O    -4.043000000    -3.484000000    -6.101000000
H    -3.680000000    -3.385000000    -5.221000000
H    -3.402000000    -4.021000000    -6.567000000
O     0.300000000    -4.231000000    -5.001000000
H    -0.431000000    -3.703000000    -4.682000000
H     0.182000000    -5.083000000    -4.579000000
O     1.575000000    -5.438000000    -7.251000000
H     0.968000000    -6.149000000    -7.457000000
H     1.576000000    -5.395000000    -6.295000000
O    -2.298000000     1.736000000    -7.059000000
H    -1.471000000     2.125000000    -7.342000000
H    -2.079000000     0.826000000    -6.859000000
O    -5.282000000    -0.313000000    -3.707000000
H    -4.870000000    -1.176000000    -3.672000000
H    -4.570000000     0.283000000    -3.943000000
O    -3.638000000     1.671000000    -4.878000000
H    -2.833000000     1.293000000    -4.525000000
H    -3.428000000     1.870000000    -5.791000000
O    -8.119000000    -2.605000000    -1.626000000
H    -8.818000000    -3.171000000    -1.298000000
H    -8.077000000    -1.886000000    -0.996000000
O    -4.966000000    -1.130000000    -6.951000000
H    -4.634000000    -1.982000000    -6.666000000
H    -5.055000000    -0.625000000    -6.144000000
O    -1.695000000    -1.539000000    -8.490000000
H    -1.731000000    -2.484000000    -8.635000000
H    -1.326000000    -1.186000000    -9.300000000
