215
-1436.95316
C    -4.987000000    -0.471000000     1.726000000
H    -4.974000000     0.577000000     2.017000000
C    -3.958000000    -1.418000000     2.198000000
C    -4.070000000    -2.729000000     1.846000000
H    -3.417000000    -3.424000000     2.366000000
C    -2.862000000    -0.952000000     3.102000000
O    -3.212000000     0.194000000     3.913000000
H    -1.965000000    -0.717000000     2.510000000
O    -2.340000000    -2.005000000     3.875000000
C    -1.004000000    -2.229000000     4.016000000
C    -0.416000000    -3.270000000     3.292000000
H    -1.061000000    -3.983000000     2.786000000
C     0.946000000    -3.301000000     3.168000000
O     1.491000000    -4.162000000     2.286000000
C     1.775000000    -2.347000000     3.781000000
C     3.333000000    -2.440000000     3.586000000
H     3.793000000    -2.210000000     4.549000000
C     3.795000000    -1.591000000     2.424000000
C     4.249000000    -0.284000000     2.687000000
H     4.365000000     0.029000000     3.722000000
H     3.669000000    -3.468000000     3.437000000
C     1.144000000    -1.380000000     4.540000000
H     1.680000000    -0.561000000     5.013000000
C    -0.198000000    -1.299000000     4.696000000
C    -0.757000000    -0.191000000     5.557000000
H    -0.046000000     0.130000000     6.321000000
H    -1.670000000    -0.624000000     5.970000000
C    -1.091000000     1.048000000     4.665000000
C    -0.073000000     2.018000000     4.626000000
H     0.919000000     1.812000000     5.020000000
C    -2.297000000     1.243000000     3.944000000
C    -2.472000000     2.322000000     3.143000000
H    -3.298000000     2.455000000     2.449000000
C    -1.561000000     3.317000000     3.075000000
O    -1.742000000     4.255000000     2.082000000
C    -1.068000000     4.010000000     0.864000000
C    -1.987000000     4.132000000    -0.381000000
C    -1.438000000     4.245000000    -1.598000000
H    -0.372000000     4.164000000    -1.790000000
C    -3.368000000     4.168000000    -0.258000000
H    -3.774000000     4.091000000     0.748000000
O     0.133000000     4.878000000     0.803000000
H    -0.761000000     2.955000000     0.910000000
C    -0.303000000     3.140000000     3.760000000
C     0.750000000     4.182000000     3.616000000
H     1.259000000     4.375000000     4.563000000
H     0.309000000     5.170000000     3.467000000
C     1.639000000     3.831000000     2.391000000
C     2.837000000     3.182000000     2.677000000
H     3.140000000     3.012000000     3.707000000
C     1.348000000     4.251000000     1.069000000
C     2.305000000     3.935000000     0.032000000
H     2.028000000     4.257000000    -0.969000000
C     3.471000000     3.256000000     0.338000000
O     4.281000000     2.887000000    -0.727000000
C     4.093000000     1.530000000    -1.338000000
C     4.052000000     1.509000000    -2.861000000
C     3.396000000     2.527000000    -3.572000000
H     2.926000000     3.356000000    -3.049000000
C     4.440000000     0.343000000    -3.581000000
H     4.784000000    -0.513000000    -3.005000000
O     5.084000000     0.647000000    -0.788000000
H     3.106000000     1.214000000    -0.970000000
C     3.757000000     2.839000000     1.640000000
C     4.968000000     1.907000000     1.852000000
H     5.209000000     1.937000000     2.917000000
H     5.832000000     2.226000000     1.264000000
C     4.640000000     0.492000000     1.606000000
C     4.733000000    -0.126000000     0.360000000
C     4.302000000    -1.406000000     0.101000000
H     4.252000000    -1.800000000    -0.911000000
C     3.713000000    -2.069000000     1.138000000
O     3.314000000    -3.329000000     0.952000000
C     1.896000000    -3.530000000     1.021000000
H     1.390000000    -2.554000000     0.999000000
C     1.370000000    -4.383000000    -0.201000000
C     0.290000000    -5.252000000    -0.137000000
H    -0.316000000    -5.387000000     0.755000000
C     2.124000000    -4.208000000    -1.383000000
H     2.943000000    -3.494000000    -1.427000000
C     1.796000000    -4.932000000    -2.522000000
O     2.333000000    -4.631000000    -3.756000000
C     0.635000000    -5.736000000    -2.458000000
H     0.320000000    -6.313000000    -3.323000000
C    -0.069000000    -5.936000000    -1.259000000
O    -1.185000000    -6.736000000    -1.209000000
C    -2.229000000    -6.550000000    -0.296000000
C    -3.131000000    -5.465000000    -0.433000000
H    -2.996000000    -4.715000000    -1.208000000
C    -2.470000000    -7.547000000     0.631000000
H    -1.823000000    -8.405000000     0.474000000
C    -3.568000000    -7.465000000     1.462000000
H    -3.716000000    -8.211000000     2.239000000
C    -4.384000000    -6.316000000     1.459000000
H    -5.186000000    -6.202000000     2.184000000
C    -4.153000000    -5.325000000     0.523000000
O    -5.080000000    -4.442000000     0.452000000
C    -5.106000000    -3.177000000     0.975000000
C    -6.077000000    -2.276000000     0.550000000
H    -6.878000000    -2.561000000    -0.128000000
C    -5.997000000    -0.972000000     0.913000000
O    -7.002000000    -0.156000000     0.358000000
C    -6.965000000     1.217000000     0.425000000
C    -6.125000000     1.965000000    -0.390000000
H    -5.510000000     1.489000000    -1.150000000
C    -7.732000000     1.847000000     1.375000000
H    -8.310000000     1.305000000     2.118000000
C    -7.733000000     3.271000000     1.438000000
H    -8.352000000     3.810000000     2.151000000
C    -6.976000000     4.024000000     0.507000000
H    -6.902000000     5.108000000     0.546000000
C    -6.219000000     3.373000000    -0.453000000
O    -5.483000000     4.125000000    -1.394000000
C    -4.157000000     4.130000000    -1.470000000
C    -3.583000000     4.172000000    -2.698000000
H    -4.121000000     4.079000000    -3.638000000
C    -2.204000000     4.301000000    -2.744000000
O    -1.652000000     4.233000000    -4.004000000
C    -0.449000000     4.673000000    -4.180000000
C     0.504000000     3.772000000    -4.625000000
H     0.316000000     2.702000000    -4.665000000
C    -0.253000000     6.056000000    -4.277000000
H    -0.952000000     6.777000000    -3.861000000
C     0.996000000     6.525000000    -4.745000000
H     1.167000000     7.589000000    -4.886000000
C     1.869000000     5.656000000    -5.328000000
H     2.720000000     6.146000000    -5.794000000
C     1.680000000     4.264000000    -5.156000000
O     2.580000000     3.345000000    -5.739000000
C     3.270000000     2.414000000    -4.954000000
C     3.804000000     1.298000000    -5.631000000
H     3.638000000     1.271000000    -6.705000000
C     4.315000000     0.224000000    -4.940000000
O     4.822000000    -0.874000000    -5.572000000
C     4.725000000    -2.108000000    -4.992000000
C     5.974000000    -2.784000000    -4.881000000
H     6.944000000    -2.445000000    -5.237000000
C     5.925000000    -4.052000000    -4.246000000
H     6.822000000    -4.636000000    -4.050000000
C     4.759000000    -4.598000000    -3.778000000
H     4.815000000    -5.557000000    -3.270000000
C     3.532000000    -3.947000000    -4.010000000
C     3.505000000    -2.736000000    -4.676000000
H     2.575000000    -2.259000000    -4.975000000
C    -0.416000000    -1.698000000    -1.946000000
H     0.323000000    -2.392000000    -2.339000000
C    -0.128000000    -0.771000000    -0.920000000
H     0.880000000    -0.718000000    -0.516000000
C    -1.089000000     0.022000000    -0.352000000
H    -0.877000000     0.759000000     0.436000000
C    -2.337000000     0.071000000    -1.032000000
H    -3.046000000     0.827000000    -0.705000000
C    -2.648000000    -0.778000000    -2.082000000
H    -3.515000000    -0.715000000    -2.735000000
C    -1.730000000    -1.792000000    -2.389000000
C    -2.159000000    -2.865000000    -3.332000000
O    -3.314000000    -2.880000000    -3.661000000
O    -1.394000000    -3.760000000    -3.764000000
O    -6.292000000    -2.050000000    -6.417000000
H    -6.002000000    -1.313000000    -5.879000000
H    -7.148000000    -1.780000000    -6.750000000
O    -4.367000000    -3.783000000    -5.844000000
H    -3.996000000    -3.581000000    -4.985000000
H    -4.769000000    -2.963000000    -6.130000000
O    -3.083000000    -4.464000000    -8.248000000
H    -2.230000000    -4.050000000    -8.120000000
H    -3.546000000    -4.319000000    -7.423000000
O    -8.577000000    -4.552000000    -4.163000000
H    -7.708000000    -4.798000000    -4.479000000
H    -9.149000000    -5.260000000    -4.461000000
O    -6.863000000    -5.087000000    -6.465000000
H    -7.170000000    -4.437000000    -7.097000000
H    -5.955000000    -4.840000000    -6.290000000
O    -5.660000000    -4.195000000    -3.170000000
H    -4.835000000    -3.741000000    -3.341000000
H    -6.322000000    -3.503000000    -3.186000000
O    -6.773000000     0.542000000    -4.014000000
H    -5.874000000     0.308000000    -4.247000000
H    -7.200000000    -0.296000000    -3.836000000
O     0.026000000    -0.431000000    -6.034000000
H    -0.289000000    -1.224000000    -5.600000000
H     0.318000000    -0.729000000    -6.895000000
O     0.278000000    -4.618000000    -5.778000000
H    -0.299000000    -4.246000000    -5.111000000
H     0.325000000    -5.549000000    -5.561000000
O     0.374000000    -7.354000000    -5.929000000
H     0.502000000    -8.167000000    -5.441000000
H     0.508000000    -7.600000000    -6.844000000
O    -3.356000000     2.949000000    -6.103000000
H    -2.953000000     3.549000000    -6.730000000
H    -2.664000000     2.323000000    -5.892000000
O    -7.425000000    -5.369000000    -1.096000000
H    -7.177000000    -5.647000000    -1.977000000
H    -6.614000000    -5.035000000    -0.713000000
O    -1.853000000     0.950000000    -4.749000000
H    -1.360000000     0.924000000    -3.929000000
H    -1.243000000     0.614000000    -5.406000000
O    -2.321000000    -8.928000000    -3.924000000
H    -3.263000000    -9.060000000    -4.034000000
H    -2.203000000    -7.981000000    -3.992000000
O    -0.806000000    -2.789000000    -7.910000000
H    -0.462000000    -3.476000000    -7.338000000
H    -0.035000000    -2.285000000    -8.168000000
O    -4.462000000    -0.332000000    -5.016000000
H    -4.033000000    -1.150000000    -4.766000000
H    -3.755000000     0.313000000    -5.038000000
O    -2.947000000    -6.041000000    -4.434000000
H    -2.472000000    -5.338000000    -3.991000000
H    -3.523000000    -5.590000000    -5.051000000
O    -2.134000000    -1.562000000    -9.960000000
H    -1.515000000    -1.752000000   -10.665000000
H    -1.665000000    -1.798000000    -9.160000000
O    -5.414000000    -6.927000000    -2.320000000
H    -4.620000000    -7.402000000    -2.566000000
H    -5.467000000    -6.207000000    -2.948000000
