215
-1459.04508
C    -4.558000000    -2.540000000     1.863000000
H    -4.923000000    -1.549000000     2.121000000
C    -3.243000000    -2.917000000     2.131000000
C    -2.757000000    -4.111000000     1.683000000
H    -1.743000000    -4.409000000     1.935000000
C    -2.362000000    -1.911000000     2.944000000
O    -3.247000000    -0.990000000     3.725000000
H    -1.638000000    -1.371000000     2.315000000
O    -1.544000000    -2.631000000     3.913000000
C    -0.260000000    -2.180000000     4.059000000
C     0.823000000    -2.802000000     3.389000000
H     0.590000000    -3.633000000     2.727000000
C     2.118000000    -2.315000000     3.368000000
O     3.001000000    -2.885000000     2.504000000
C     2.407000000    -1.195000000     4.144000000
C     3.846000000    -0.545000000     4.070000000
H     3.960000000     0.145000000     4.908000000
C     3.965000000     0.330000000     2.777000000
C     3.692000000     1.720000000     2.899000000
H     3.462000000     2.207000000     3.843000000
H     4.588000000    -1.329000000     4.237000000
C     1.373000000    -0.526000000     4.865000000
H     1.625000000     0.442000000     5.291000000
C     0.066000000    -0.972000000     4.810000000
C    -1.044000000    -0.118000000     5.374000000
H    -0.660000000     0.562000000     6.138000000
H    -1.794000000    -0.717000000     5.895000000
C    -1.703000000     0.775000000     4.429000000
C    -1.292000000     2.084000000     4.246000000
H    -0.449000000     2.445000000     4.830000000
C    -2.879000000     0.333000000     3.718000000
C    -3.465000000     1.174000000     2.756000000
H    -4.295000000     0.897000000     2.111000000
C    -2.964000000     2.447000000     2.581000000
O    -3.491000000     3.249000000     1.506000000
C    -2.703000000     3.252000000     0.283000000
C    -3.486000000     2.862000000    -0.982000000
C    -2.961000000     3.176000000    -2.207000000
H    -2.040000000     3.745000000    -2.298000000
C    -4.676000000     2.106000000    -0.881000000
H    -5.026000000     1.837000000     0.112000000
O    -1.985000000     4.500000000     0.115000000
H    -1.970000000     2.454000000     0.476000000
C    -1.948000000     2.945000000     3.382000000
C    -1.386000000     4.310000000     3.134000000
H    -1.069000000     4.688000000     4.109000000
H    -2.212000000     4.973000000     2.870000000
C    -0.372000000     4.464000000     1.989000000
C     0.979000000     4.342000000     2.399000000
H     1.224000000     4.127000000     3.437000000
C    -0.710000000     4.638000000     0.633000000
C     0.293000000     4.661000000    -0.304000000
H     0.025000000     4.647000000    -1.357000000
C     1.589000000     4.381000000     0.118000000
O     2.505000000     4.181000000    -0.898000000
C     2.920000000     2.794000000    -1.156000000
C     2.920000000     2.483000000    -2.633000000
C     2.074000000     3.187000000    -3.539000000
H     1.535000000     4.084000000    -3.245000000
C     3.769000000     1.500000000    -3.134000000
H     4.468000000     0.944000000    -2.515000000
O     4.211000000     2.658000000    -0.666000000
H     2.302000000     2.101000000    -0.567000000
C     1.998000000     4.183000000     1.439000000
C     3.473000000     3.957000000     1.867000000
H     3.465000000     4.193000000     2.933000000
H     4.115000000     4.579000000     1.240000000
C     3.774000000     2.500000000     1.730000000
C     4.265000000     1.926000000     0.520000000
C     4.637000000     0.574000000     0.456000000
H     4.905000000     0.081000000    -0.476000000
C     4.467000000    -0.270000000     1.583000000
O     4.556000000    -1.617000000     1.396000000
C     3.332000000    -2.348000000     1.250000000
H     2.492000000    -1.664000000     1.061000000
C     3.377000000    -3.415000000     0.095000000
C     2.386000000    -4.349000000    -0.023000000
H     1.670000000    -4.377000000     0.794000000
C     4.367000000    -3.359000000    -0.883000000
H     5.222000000    -2.708000000    -0.721000000
C     4.288000000    -4.135000000    -2.056000000
O     5.264000000    -4.045000000    -3.005000000
C     3.279000000    -5.095000000    -2.140000000
H     3.323000000    -5.742000000    -3.012000000
C     2.390000000    -5.219000000    -1.099000000
O     1.254000000    -6.003000000    -1.329000000
C     0.408000000    -6.375000000    -0.326000000
C    -0.983000000    -6.273000000    -0.400000000
H    -1.433000000    -5.801000000    -1.270000000
C     0.912000000    -6.976000000     0.821000000
H     1.979000000    -7.089000000     0.992000000
C     0.107000000    -7.463000000     1.888000000
H     0.568000000    -7.906000000     2.767000000
C    -1.261000000    -7.160000000     1.874000000
H    -1.926000000    -7.333000000     2.716000000
C    -1.793000000    -6.607000000     0.705000000
O    -3.113000000    -6.232000000     0.555000000
C    -3.572000000    -4.999000000     0.987000000
C    -4.875000000    -4.660000000     0.701000000
H    -5.501000000    -5.274000000     0.059000000
C    -5.404000000    -3.454000000     1.148000000
O    -6.656000000    -3.106000000     0.701000000
C    -7.106000000    -1.776000000     0.460000000
C    -6.687000000    -1.039000000    -0.657000000
H    -5.802000000    -1.369000000    -1.195000000
C    -7.918000000    -1.211000000     1.488000000
H    -8.185000000    -1.620000000     2.459000000
C    -8.308000000     0.136000000     1.221000000
H    -8.925000000     0.649000000     1.954000000
C    -7.946000000     0.860000000     0.045000000
H    -8.303000000     1.886000000     0.017000000
C    -7.066000000     0.264000000    -0.899000000
O    -6.573000000     0.982000000    -2.018000000
C    -5.426000000     1.718000000    -2.028000000
C    -4.950000000     2.213000000    -3.264000000
H    -5.563000000     2.018000000    -4.141000000
C    -3.664000000     2.794000000    -3.379000000
O    -3.135000000     3.030000000    -4.658000000
C    -2.061000000     3.929000000    -4.884000000
C    -0.876000000     3.408000000    -5.308000000
H    -0.813000000     2.352000000    -5.560000000
C    -2.229000000     5.294000000    -4.709000000
H    -3.145000000     5.700000000    -4.285000000
C    -1.196000000     6.157000000    -4.999000000
H    -1.324000000     7.199000000    -4.718000000
C     0.038000000     5.598000000    -5.333000000
H     0.967000000     6.154000000    -5.420000000
C     0.226000000     4.214000000    -5.462000000
O     1.456000000     3.665000000    -5.848000000
C     2.095000000     2.872000000    -4.909000000
C     2.985000000     1.889000000    -5.395000000
H     2.971000000     1.550000000    -6.427000000
C     3.820000000     1.210000000    -4.510000000
O     4.668000000     0.311000000    -5.039000000
C     5.384000000    -0.623000000    -4.387000000
C     6.693000000    -0.254000000    -4.291000000
H     7.107000000     0.646000000    -4.737000000
C     7.591000000    -1.244000000    -3.798000000
H     8.666000000    -1.109000000    -3.877000000
C     7.086000000    -2.509000000    -3.418000000
H     7.824000000    -3.249000000    -3.117000000
C     5.739000000    -2.797000000    -3.395000000
C     4.868000000    -1.864000000    -3.939000000
H     3.823000000    -2.157000000    -4.001000000
C     0.395000000    -1.866000000    -1.918000000
H     0.747000000    -2.445000000    -2.768000000
C     1.235000000    -1.000000000    -1.169000000
H     2.269000000    -0.907000000    -1.493000000
C     0.772000000    -0.157000000    -0.182000000
H     1.450000000     0.537000000     0.320000000
C    -0.541000000    -0.199000000     0.151000000
H    -0.962000000     0.441000000     0.922000000
C    -1.408000000    -1.138000000    -0.499000000
H    -2.469000000    -1.034000000    -0.286000000
C    -0.958000000    -1.946000000    -1.559000000
C    -2.029000000    -2.668000000    -2.398000000
O    -3.153000000    -2.399000000    -2.104000000
O    -1.756000000    -3.194000000    -3.450000000
O    -4.521000000    -8.123000000    -1.146000000
H    -3.836000000    -7.577000000    -0.760000000
H    -4.607000000    -7.801000000    -2.043000000
O    -8.358000000    -2.317000000    -3.245000000
H    -7.907000000    -3.095000000    -2.918000000
H    -8.907000000    -2.033000000    -2.514000000
O    -4.720000000    -0.793000000    -3.834000000
H    -4.190000000    -1.343000000    -3.258000000
H    -5.157000000    -0.179000000    -3.244000000
O    -7.418000000    -5.372000000    -2.686000000
H    -7.450000000    -6.188000000    -3.184000000
H    -6.487000000    -5.158000000    -2.637000000
O    -2.391000000    -6.658000000    -6.678000000
H    -2.259000000    -6.233000000    -7.525000000
H    -1.998000000    -6.057000000    -6.045000000
O    -4.762000000    -6.751000000    -5.144000000
H    -4.614000000    -5.840000000    -4.891000000
H    -3.903000000    -7.064000000    -5.425000000
O    -4.897000000    -4.461000000    -2.171000000
H    -4.417000000    -3.748000000    -1.751000000
H    -4.628000000    -4.423000000    -3.089000000
O    -1.486000000    -1.145000000    -5.344000000
H    -2.401000000    -0.863000000    -5.347000000
H    -1.408000000    -1.695000000    -4.564000000
O    -0.107000000    -8.695000000    -3.648000000
H     0.433000000    -7.918000000    -3.790000000
H    -0.060000000    -8.851000000    -2.704000000
O    -7.325000000    -3.850000000    -6.917000000
H    -8.152000000    -3.492000000    -6.595000000
H    -6.664000000    -3.221000000    -6.626000000
O     0.093000000    -3.304000000    -6.946000000
H    -0.410000000    -3.635000000    -7.690000000
H    -0.491000000    -2.674000000    -6.523000000
O    -7.172000000    -0.674000000    -5.148000000
H    -6.253000000    -0.721000000    -4.884000000
H    -7.600000000    -1.370000000    -4.650000000
O     2.677000000    -2.452000000    -6.390000000
H     1.735000000    -2.614000000    -6.341000000
H     2.758000000    -1.668000000    -6.933000000
O    -4.006000000    -3.946000000    -4.846000000
H    -4.351000000    -3.225000000    -5.372000000
H    -3.217000000    -3.589000000    -4.438000000
O    -1.119000000    -5.498000000    -4.559000000
H    -0.202000000    -5.491000000    -4.834000000
H    -1.246000000    -4.652000000    -4.130000000
O    -5.320000000    -1.939000000    -7.061000000
H    -4.633000000    -1.272000000    -7.052000000
H    -5.305000000    -2.286000000    -7.952000000
O    -1.265000000     0.537000000    -8.068000000
H    -1.094000000    -0.043000000    -7.325000000
H    -0.570000000     0.336000000    -8.694000000
O    -2.621000000    -7.404000000    -3.697000000
H    -2.359000000    -6.621000000    -4.180000000
H    -1.805000000    -7.888000000    -3.565000000
O     1.408000000    -6.283000000    -5.276000000
H     1.437000000    -6.913000000    -5.996000000
H     2.213000000    -5.775000000    -5.369000000
