215
-1483.80948
C    -4.064000000    -2.245000000     2.226000000
H    -4.238000000    -1.173000000     2.238000000
C    -2.993000000    -2.711000000     3.044000000
C    -2.754000000    -4.099000000     3.030000000
H    -1.877000000    -4.565000000     3.472000000
C    -1.970000000    -1.748000000     3.697000000
O    -2.594000000    -0.710000000     4.504000000
H    -1.409000000    -1.394000000     2.820000000
O    -1.075000000    -2.556000000     4.493000000
C     0.271000000    -2.302000000     4.302000000
C     0.894000000    -3.022000000     3.280000000
H     0.280000000    -3.766000000     2.779000000
C     2.151000000    -2.587000000     2.921000000
O     2.768000000    -3.291000000     1.915000000
C     2.851000000    -1.544000000     3.552000000
C     4.268000000    -1.193000000     3.263000000
H     4.755000000    -0.606000000     4.045000000
C     4.355000000    -0.305000000     1.989000000
C     4.386000000     1.067000000     2.155000000
H     4.236000000     1.556000000     3.115000000
H     4.833000000    -2.128000000     3.293000000
C     2.146000000    -0.841000000     4.511000000
H     2.567000000     0.096000000     4.870000000
C     0.804000000    -1.130000000     4.843000000
C    -0.044000000    -0.180000000     5.652000000
H     0.593000000     0.313000000     6.389000000
H    -0.755000000    -0.762000000     6.244000000
C    -0.797000000     0.835000000     4.827000000
C    -0.169000000     2.014000000     4.566000000
H     0.853000000     2.164000000     4.905000000
C    -2.094000000     0.554000000     4.415000000
C    -2.687000000     1.399000000     3.448000000
H    -3.582000000     1.071000000     2.925000000
C    -2.078000000     2.654000000     3.187000000
O    -2.683000000     3.402000000     2.194000000
C    -2.069000000     3.431000000     0.868000000
C    -3.150000000     3.436000000    -0.167000000
C    -2.855000000     3.934000000    -1.465000000
H    -1.932000000     4.453000000    -1.707000000
C    -4.321000000     2.713000000     0.028000000
H    -4.537000000     2.307000000     1.013000000
O    -1.239000000     4.656000000     0.846000000
H    -1.340000000     2.617000000     0.740000000
C    -0.857000000     3.010000000     3.823000000
C    -0.160000000     4.295000000     3.551000000
H     0.505000000     4.560000000     4.375000000
H    -0.918000000     5.077000000     3.478000000
C     0.649000000     4.212000000     2.233000000
C     2.018000000     3.968000000     2.352000000
H     2.363000000     3.942000000     3.383000000
C     0.120000000     4.459000000     1.025000000
C     0.932000000     4.453000000    -0.110000000
H     0.498000000     4.605000000    -1.095000000
C     2.300000000     4.213000000     0.023000000
O     2.875000000     3.954000000    -1.229000000
C     2.994000000     2.594000000    -1.735000000
C     2.710000000     2.548000000    -3.291000000
C     1.942000000     3.533000000    -3.991000000
H     1.542000000     4.377000000    -3.435000000
C     3.216000000     1.475000000    -3.989000000
H     3.889000000     0.838000000    -3.420000000
O     4.275000000     2.095000000    -1.409000000
H     2.235000000     1.991000000    -1.215000000
C     2.862000000     3.908000000     1.243000000
C     4.299000000     3.421000000     1.398000000
H     4.617000000     3.568000000     2.432000000
H     4.986000000     4.010000000     0.787000000
C     4.403000000     1.919000000     1.070000000
C     4.433000000     1.336000000    -0.263000000
C     4.410000000    -0.027000000    -0.400000000
H     4.377000000    -0.431000000    -1.409000000
C     4.357000000    -0.830000000     0.728000000
O     4.232000000    -2.162000000     0.464000000
C     2.928000000    -2.671000000     0.634000000
H     2.184000000    -1.871000000     0.508000000
C     2.519000000    -3.567000000    -0.529000000
C     1.450000000    -4.450000000    -0.373000000
H     0.844000000    -4.364000000     0.526000000
C     3.021000000    -3.361000000    -1.799000000
H     3.793000000    -2.603000000    -1.910000000
C     2.525000000    -4.035000000    -2.909000000
O     3.055000000    -3.948000000    -4.163000000
C     1.583000000    -5.056000000    -2.693000000
H     1.282000000    -5.813000000    -3.413000000
C     1.014000000    -5.241000000    -1.474000000
O    -0.080000000    -6.032000000    -1.218000000
C    -0.415000000    -6.544000000    -0.034000000
C    -1.643000000    -6.178000000     0.526000000
H    -2.209000000    -5.378000000     0.057000000
C     0.337000000    -7.541000000     0.610000000
H     1.256000000    -7.857000000     0.123000000
C    -0.079000000    -8.101000000     1.812000000
H     0.510000000    -8.876000000     2.294000000
C    -1.377000000    -7.776000000     2.283000000
H    -1.869000000    -8.184000000     3.162000000
C    -2.089000000    -6.818000000     1.605000000
O    -3.251000000    -6.346000000     2.175000000
C    -3.549000000    -4.974000000     2.240000000
C    -4.532000000    -4.461000000     1.420000000
H    -5.177000000    -5.073000000     0.795000000
C    -4.801000000    -3.121000000     1.407000000
O    -5.866000000    -2.660000000     0.636000000
C    -6.357000000    -1.369000000     0.737000000
C    -6.006000000    -0.376000000    -0.152000000
H    -5.281000000    -0.568000000    -0.938000000
C    -7.209000000    -1.040000000     1.779000000
H    -7.579000000    -1.865000000     2.383000000
C    -7.833000000     0.242000000     1.886000000
H    -8.609000000     0.328000000     2.642000000
C    -7.572000000     1.264000000     0.945000000
H    -8.050000000     2.232000000     1.071000000
C    -6.633000000     0.857000000    -0.077000000
O    -6.288000000     1.707000000    -1.089000000
C    -5.139000000     2.481000000    -1.087000000
C    -4.875000000     2.987000000    -2.311000000
H    -5.310000000     2.612000000    -3.234000000
C    -3.699000000     3.724000000    -2.511000000
O    -3.260000000     3.834000000    -3.854000000
C    -2.304000000     4.690000000    -4.239000000
C    -1.224000000     4.127000000    -4.902000000
H    -1.165000000     3.052000000    -5.046000000
C    -2.303000000     6.030000000    -3.991000000
H    -3.143000000     6.337000000    -3.373000000
C    -1.273000000     6.840000000    -4.388000000
H    -1.241000000     7.909000000    -4.198000000
C    -0.182000000     6.300000000    -5.051000000
H     0.629000000     6.932000000    -5.404000000
C    -0.161000000     4.907000000    -5.264000000
O     0.895000000     4.292000000    -5.886000000
C     1.650000000     3.373000000    -5.310000000
C     2.069000000     2.232000000    -6.000000000
H     1.725000000     2.177000000    -7.029000000
C     2.919000000     1.365000000    -5.342000000
O     3.464000000     0.374000000    -6.166000000
C     4.002000000    -0.828000000    -5.595000000
C     5.329000000    -1.022000000    -5.778000000
H     5.943000000    -0.212000000    -6.164000000
C     5.983000000    -2.143000000    -5.240000000
H     7.052000000    -2.270000000    -5.388000000
C     5.187000000    -3.087000000    -4.632000000
H     5.633000000    -4.036000000    -4.347000000
C     3.789000000    -2.906000000    -4.607000000
C     3.158000000    -1.764000000    -4.989000000
H     2.112000000    -1.531000000    -4.805000000
C     0.016000000    -1.005000000    -2.065000000
H     0.841000000    -1.312000000    -2.703000000
C     0.329000000    -0.353000000    -0.862000000
H     1.328000000     0.048000000    -0.710000000
C    -0.692000000    -0.100000000     0.116000000
H    -0.506000000     0.248000000     1.053000000
C    -1.994000000    -0.549000000    -0.226000000
H    -2.765000000    -0.374000000     0.520000000
C    -2.254000000    -1.158000000    -1.454000000
H    -3.267000000    -1.493000000    -1.663000000
C    -1.232000000    -1.475000000    -2.358000000
C    -1.455000000    -2.343000000    -3.557000000
O    -2.578000000    -2.717000000    -3.846000000
O    -0.495000000    -2.641000000    -4.276000000
O    -6.641000000    -5.931000000    -1.306000000
H    -5.892000000    -5.451000000    -1.659000000
H    -6.267000000    -6.489000000    -0.624000000
O    -7.241000000     0.130000000    -3.685000000
H    -6.348000000    -0.194000000    -3.569000000
H    -7.251000000     0.493000000    -4.570000000
O    -4.731000000    -0.867000000    -3.784000000
H    -4.076000000    -1.565000000    -3.755000000
H    -4.788000000    -0.631000000    -4.710000000
O    -5.271000000    -2.774000000    -8.165000000
H    -4.921000000    -3.129000000    -8.982000000
H    -4.554000000    -2.866000000    -7.537000000
O    -0.219000000    -7.340000000    -6.184000000
H     0.454000000    -6.791000000    -6.585000000
H    -0.896000000    -6.724000000    -5.903000000
O    -6.303000000    -3.647000000    -4.443000000
H    -5.831000000    -2.879000000    -4.121000000
H    -6.272000000    -4.269000000    -3.717000000
O    -1.800000000    -5.195000000    -7.829000000
H    -1.606000000    -6.083000000    -8.129000000
H    -2.693000000    -5.248000000    -7.488000000
O    -4.449000000    -0.173000000    -6.339000000
H    -3.743000000     0.452000000    -6.507000000
H    -4.205000000    -0.950000000    -6.842000000
O    -4.133000000    -4.669000000    -2.368000000
H    -3.694000000    -4.027000000    -2.927000000
H    -4.007000000    -5.504000000    -2.817000000
O    -0.563000000    -0.249000000    -5.685000000
H    -0.276000000    -1.124000000    -5.424000000
H    -0.870000000     0.155000000    -4.873000000
O    -1.598000000    -5.451000000    -4.847000000
H    -1.983000000    -4.664000000    -5.232000000
H    -1.001000000    -5.122000000    -4.175000000
O    -1.792000000     1.074000000    -3.716000000
H    -2.041000000     0.827000000    -2.825000000
H    -2.441000000     1.730000000    -3.972000000
O    -3.172000000    -2.821000000    -6.497000000
H    -2.332000000    -2.529000000    -6.850000000
H    -3.019000000    -2.910000000    -5.557000000
O    -0.378000000    -2.979000000    -7.209000000
H    -0.710000000    -3.863000000    -7.365000000
H    -0.111000000    -2.981000000    -6.290000000
O    -2.528000000    -0.412000000    -8.992000000
H    -1.803000000    -0.953000000    -9.304000000
H    -2.108000000     0.286000000    -8.490000000
O    -1.877000000     1.587000000    -6.984000000
H    -1.224000000     1.952000000    -7.582000000
H    -1.398000000     0.934000000    -6.476000000
O    -3.681000000    -7.089000000    -4.090000000
H    -3.026000000    -6.497000000    -4.459000000
H    -3.173000000    -7.823000000    -3.745000000
O     1.676000000    -5.356000000    -6.448000000
H     2.246000000    -5.044000000    -5.745000000
H     2.028000000    -4.950000000    -7.240000000
O    -0.614000000    -2.299000000    -9.824000000
H    -0.975000000    -3.121000000   -10.156000000
H    -0.320000000    -2.507000000    -8.937000000
