215
-1459.30910
C    -5.322000000    -0.948000000     0.919000000
H    -5.666000000     0.074000000     1.056000000
C    -4.159000000    -1.399000000     1.528000000
C    -3.614000000    -2.668000000     1.126000000
H    -2.698000000    -3.083000000     1.540000000
C    -3.430000000    -0.557000000     2.558000000
O    -4.216000000     0.583000000     2.995000000
H    -2.531000000    -0.300000000     1.979000000
O    -3.072000000    -1.387000000     3.615000000
C    -1.794000000    -1.263000000     3.999000000
C    -0.930000000    -2.340000000     3.702000000
H    -1.280000000    -3.237000000     3.197000000
C     0.411000000    -2.276000000     3.935000000
O     1.196000000    -3.199000000     3.393000000
C     0.910000000    -1.112000000     4.550000000
C     2.320000000    -0.815000000     4.963000000
H     2.366000000    -0.086000000     5.775000000
C     3.089000000    -0.260000000     3.762000000
C     3.264000000     1.172000000     3.633000000
H     2.937000000     1.770000000     4.479000000
H     2.817000000    -1.662000000     5.440000000
C     0.061000000    -0.078000000     4.883000000
H     0.376000000     0.814000000     5.419000000
C    -1.336000000    -0.144000000     4.601000000
C    -2.320000000     1.019000000     5.068000000
H    -1.919000000     1.423000000     5.999000000
H    -3.261000000     0.541000000     5.347000000
C    -2.558000000     2.034000000     3.930000000
C    -1.693000000     3.076000000     3.658000000
H    -0.801000000     3.164000000     4.273000000
C    -3.521000000     1.762000000     2.966000000
C    -3.597000000     2.526000000     1.795000000
H    -4.254000000     2.246000000     0.975000000
C    -2.750000000     3.565000000     1.575000000
O    -2.846000000     4.194000000     0.403000000
C    -1.869000000     3.818000000    -0.589000000
C    -2.534000000     3.641000000    -1.972000000
C    -1.814000000     3.879000000    -3.086000000
H    -0.806000000     4.273000000    -2.994000000
C    -3.841000000     3.088000000    -2.135000000
H    -4.374000000     2.788000000    -1.236000000
O    -0.812000000     4.801000000    -0.621000000
H    -1.431000000     2.823000000    -0.420000000
C    -1.797000000     3.924000000     2.541000000
C    -0.878000000     5.148000000     2.313000000
H    -0.530000000     5.556000000     3.264000000
H    -1.426000000     5.958000000     1.829000000
C     0.322000000     4.636000000     1.521000000
C     1.481000000     4.166000000     2.148000000
H     1.523000000     4.234000000     3.232000000
C     0.312000000     4.616000000     0.123000000
C     1.440000000     4.131000000    -0.537000000
H     1.374000000     3.962000000    -1.608000000
C     2.591000000     3.640000000     0.107000000
O     3.681000000     3.058000000    -0.594000000
C     3.770000000     1.676000000    -0.624000000
C     3.950000000     1.099000000    -2.007000000
C     3.125000000     1.556000000    -3.000000000
H     2.378000000     2.330000000    -2.846000000
C     4.762000000    -0.055000000    -2.177000000
H     5.362000000    -0.495000000    -1.385000000
O     4.806000000     1.228000000     0.284000000
H     2.846000000     1.296000000    -0.164000000
C     2.608000000     3.680000000     1.503000000
C     3.744000000     3.205000000     2.390000000
H     3.806000000     3.620000000     3.398000000
H     4.692000000     3.577000000     1.995000000
C     3.850000000     1.710000000     2.526000000
C     4.429000000     0.821000000     1.563000000
C     4.290000000    -0.562000000     1.709000000
H     4.745000000    -1.233000000     0.984000000
C     3.604000000    -1.084000000     2.803000000
O     3.253000000    -2.413000000     2.900000000
C     2.091000000    -2.923000000     2.281000000
H     1.596000000    -2.114000000     1.725000000
C     2.342000000    -4.135000000     1.403000000
C     1.324000000    -4.754000000     0.760000000
H     0.331000000    -4.510000000     1.127000000
C     3.663000000    -4.389000000     0.932000000
H     4.527000000    -3.878000000     1.348000000
C     3.874000000    -5.279000000    -0.143000000
O     5.149000000    -5.423000000    -0.591000000
C     2.778000000    -5.937000000    -0.732000000
H     3.014000000    -6.621000000    -1.542000000
C     1.522000000    -5.648000000    -0.285000000
O     0.415000000    -6.324000000    -0.846000000
C    -0.713000000    -6.352000000    -0.055000000
C    -1.742000000    -5.541000000    -0.475000000
H    -1.685000000    -4.938000000    -1.378000000
C    -0.888000000    -7.122000000     1.071000000
H    -0.233000000    -7.943000000     1.348000000
C    -1.984000000    -6.933000000     1.907000000
H    -2.108000000    -7.559000000     2.787000000
C    -2.941000000    -6.023000000     1.556000000
H    -3.875000000    -5.993000000     2.112000000
C    -2.832000000    -5.333000000     0.331000000
O    -3.805000000    -4.573000000    -0.265000000
C    -4.306000000    -3.408000000     0.177000000
C    -5.458000000    -2.905000000    -0.411000000
H    -5.866000000    -3.441000000    -1.264000000
C    -5.962000000    -1.661000000    -0.057000000
O    -7.054000000    -1.253000000    -0.762000000
C    -7.250000000    -0.035000000    -1.270000000
C    -6.202000000     0.628000000    -1.980000000
H    -5.223000000     0.198000000    -2.176000000
C    -8.492000000     0.547000000    -1.162000000
H    -9.270000000     0.065000000    -0.574000000
C    -8.733000000     1.758000000    -1.725000000
H    -9.755000000     2.115000000    -1.624000000
C    -7.711000000     2.458000000    -2.376000000
H    -8.045000000     3.352000000    -2.897000000
C    -6.463000000     1.855000000    -2.559000000
O    -5.610000000     2.309000000    -3.532000000
C    -4.346000000     2.808000000    -3.394000000
C    -3.578000000     3.120000000    -4.499000000
H    -3.942000000     3.001000000    -5.516000000
C    -2.261000000     3.611000000    -4.335000000
O    -1.554000000     4.014000000    -5.405000000
C    -0.148000000     3.932000000    -5.395000000
C     0.407000000     2.687000000    -5.170000000
H    -0.244000000     1.817000000    -5.175000000
C     0.699000000     5.044000000    -5.711000000
H     0.276000000     6.045000000    -5.694000000
C     2.060000000     4.882000000    -5.795000000
H     2.695000000     5.742000000    -5.994000000
C     2.630000000     3.630000000    -5.563000000
H     3.697000000     3.479000000    -5.703000000
C     1.793000000     2.531000000    -5.285000000
O     2.331000000     1.290000000    -5.210000000
C     3.201000000     0.945000000    -4.235000000
C     4.001000000    -0.141000000    -4.443000000
H     4.024000000    -0.654000000    -5.402000000
C     4.756000000    -0.675000000    -3.430000000
O     5.589000000    -1.786000000    -3.730000000
C     6.115000000    -2.538000000    -2.705000000
C     7.459000000    -2.362000000    -2.236000000
H     8.130000000    -1.690000000    -2.766000000
C     7.860000000    -3.029000000    -1.052000000
H     8.840000000    -2.914000000    -0.595000000
C     7.088000000    -4.066000000    -0.498000000
H     7.546000000    -4.619000000     0.318000000
C     5.846000000    -4.305000000    -1.049000000
C     5.368000000    -3.632000000    -2.160000000
H     4.365000000    -3.805000000    -2.543000000
C     0.655000000    -1.272000000    -1.718000000
H     1.178000000    -1.948000000    -2.390000000
C     1.212000000    -0.973000000    -0.444000000
H     2.214000000    -1.343000000    -0.241000000
C     0.529000000    -0.060000000     0.404000000
H     0.962000000     0.210000000     1.405000000
C    -0.740000000     0.410000000     0.034000000
H    -1.388000000     0.964000000     0.708000000
C    -1.269000000     0.063000000    -1.251000000
H    -2.269000000     0.461000000    -1.406000000
C    -0.511000000    -0.693000000    -2.158000000
C    -1.037000000    -1.104000000    -3.530000000
O    -2.080000000    -0.723000000    -3.908000000
O    -0.473000000    -1.972000000    -4.225000000
O    -4.931000000    -0.125000000    -6.790000000
H    -4.799000000    -0.217000000    -7.733000000
H    -5.765000000     0.338000000    -6.708000000
O    -4.795000000    -1.171000000    -4.355000000
H    -3.942000000    -0.776000000    -4.172000000
H    -5.092000000    -0.739000000    -5.156000000
O    -2.442000000    -1.795000000    -8.669000000
H    -2.854000000    -0.939000000    -8.786000000
H    -2.556000000    -1.991000000    -7.740000000
O     2.666000000     0.159000000    -8.331000000
H     2.188000000    -0.662000000    -8.447000000
H     1.984000000     0.829000000    -8.287000000
O    -1.216000000    -4.729000000    -7.157000000
H    -1.392000000    -5.579000000    -6.753000000
H    -1.929000000    -4.167000000    -6.852000000
O    -6.974000000    -3.262000000    -3.977000000
H    -6.379000000    -2.513000000    -3.940000000
H    -7.070000000    -3.446000000    -4.912000000
O    -2.269000000     0.796000000    -6.239000000
H    -3.072000000     0.497000000    -6.666000000
H    -2.182000000     0.233000000    -5.470000000
O    -0.441000000     1.003000000    -8.415000000
H    -0.876000000     0.759000000    -7.598000000
H    -1.012000000     0.657000000    -9.102000000
O    -2.705000000    -2.370000000    -6.106000000
H    -3.533000000    -2.206000000    -5.656000000
H    -2.033000000    -2.129000000    -5.468000000
O     4.375000000    -4.952000000    -4.842000000
H     5.184000000    -5.071000000    -5.339000000
H     4.098000000    -4.059000000    -5.045000000
O     2.655000000    -3.570000000    -6.791000000
H     3.403000000    -3.017000000    -7.015000000
H     1.926000000    -2.957000000    -6.690000000
O    -3.245000000    -3.174000000    -3.296000000
H    -2.569000000    -2.506000000    -3.185000000
H    -4.051000000    -2.678000000    -3.439000000
O     0.221000000    -4.847000000    -4.010000000
H     0.611000000    -4.099000000    -3.557000000
H    -0.287000000    -4.459000000    -4.721000000
O     0.516000000    -2.030000000    -8.820000000
H     0.804000000    -2.002000000    -7.908000000
H    -0.440000000    -2.001000000    -8.770000000
O    -2.371000000    -6.915000000    -6.294000000
H    -2.160000000    -6.899000000    -5.361000000
H    -3.302000000    -6.696000000    -6.332000000
O    -3.050000000     2.819000000    -7.855000000
H    -2.287000000     3.332000000    -8.120000000
H    -2.745000000     2.302000000    -7.109000000
O    -2.486000000    -5.635000000    -3.515000000
H    -2.790000000    -4.742000000    -3.354000000
H    -1.532000000    -5.571000000    -3.493000000
O     0.417000000    -7.634000000    -3.637000000
H     1.080000000    -7.452000000    -4.304000000
H     0.185000000    -6.772000000    -3.290000000
O     0.984000000    -1.357000000    -6.198000000
H     1.276000000    -0.487000000    -5.925000000
H     0.442000000    -1.667000000    -5.473000000
