215
-1466.10358
C    -4.136000000    -2.652000000     1.666000000
H    -4.525000000    -1.639000000     1.604000000
C    -3.135000000    -3.056000000     2.563000000
C    -2.620000000    -4.367000000     2.460000000
H    -1.749000000    -4.726000000     3.002000000
C    -2.291000000    -1.965000000     3.062000000
O    -3.128000000    -1.001000000     3.810000000
H    -1.719000000    -1.486000000     2.254000000
O    -1.323000000    -2.548000000     3.944000000
C    -0.114000000    -1.906000000     4.029000000
C     0.966000000    -2.613000000     3.479000000
H     0.748000000    -3.519000000     2.919000000
C     2.233000000    -2.076000000     3.466000000
O     3.265000000    -2.744000000     2.823000000
C     2.514000000    -0.924000000     4.270000000
C     3.882000000    -0.189000000     4.213000000
H     3.891000000     0.450000000     5.099000000
C     4.013000000     0.642000000     2.973000000
C     3.598000000     2.022000000     2.919000000
H     3.188000000     2.549000000     3.777000000
H     4.690000000    -0.923000000     4.237000000
C     1.447000000    -0.355000000     4.966000000
H     1.622000000     0.560000000     5.526000000
C     0.150000000    -0.789000000     4.863000000
C    -1.016000000    -0.018000000     5.481000000
H    -0.590000000     0.709000000     6.175000000
H    -1.678000000    -0.630000000     6.097000000
C    -1.844000000     0.851000000     4.500000000
C    -1.403000000     2.133000000     4.227000000
H    -0.580000000     2.560000000     4.796000000
C    -2.751000000     0.300000000     3.637000000
C    -3.456000000     1.055000000     2.754000000
H    -4.238000000     0.593000000     2.157000000
C    -3.209000000     2.427000000     2.583000000
O    -3.798000000     3.104000000     1.579000000
C    -3.039000000     3.205000000     0.373000000
C    -3.888000000     2.954000000    -0.891000000
C    -3.654000000     3.674000000    -2.050000000
H    -2.966000000     4.515000000    -2.062000000
C    -4.860000000     1.975000000    -0.844000000
H    -4.804000000     1.269000000    -0.019000000
O    -2.343000000     4.436000000     0.343000000
H    -2.158000000     2.556000000     0.479000000
C    -2.115000000     2.913000000     3.259000000
C    -1.682000000     4.269000000     3.080000000
H    -1.214000000     4.564000000     4.021000000
H    -2.487000000     4.959000000     2.817000000
C    -0.586000000     4.361000000     2.037000000
C     0.757000000     4.243000000     2.280000000
H     1.127000000     4.243000000     3.303000000
C    -1.007000000     4.497000000     0.686000000
C    -0.057000000     4.449000000    -0.312000000
H    -0.480000000     4.389000000    -1.312000000
C     1.272000000     4.347000000    -0.063000000
O     2.116000000     4.141000000    -1.107000000
C     2.674000000     2.821000000    -1.263000000
C     2.739000000     2.454000000    -2.731000000
C     1.605000000     2.786000000    -3.501000000
H     0.802000000     3.207000000    -2.900000000
C     3.815000000     1.732000000    -3.332000000
H     4.765000000     1.562000000    -2.830000000
O     4.040000000     2.690000000    -0.678000000
H     1.939000000     2.166000000    -0.773000000
C     1.734000000     4.376000000     1.255000000
C     3.208000000     4.195000000     1.645000000
H     3.527000000     4.673000000     2.574000000
H     3.781000000     4.787000000     0.928000000
C     3.659000000     2.734000000     1.691000000
C     4.158000000     2.077000000     0.569000000
C     4.606000000     0.767000000     0.601000000
H     4.941000000     0.285000000    -0.314000000
C     4.553000000     0.048000000     1.808000000
O     4.859000000    -1.275000000     1.791000000
C     3.683000000    -2.117000000     1.618000000
H     2.894000000    -1.389000000     1.376000000
C     3.677000000    -2.978000000     0.396000000
C     2.635000000    -3.899000000     0.226000000
H     1.917000000    -4.030000000     1.031000000
C     4.678000000    -2.943000000    -0.528000000
H     5.611000000    -2.403000000    -0.394000000
C     4.505000000    -3.654000000    -1.767000000
O     5.429000000    -3.485000000    -2.768000000
C     3.382000000    -4.478000000    -1.958000000
H     3.251000000    -4.983000000    -2.911000000
C     2.520000000    -4.707000000    -0.913000000
O     1.381000000    -5.390000000    -1.258000000
C     0.742000000    -6.199000000    -0.321000000
C    -0.577000000    -5.914000000     0.140000000
H    -1.029000000    -4.951000000    -0.086000000
C     1.283000000    -7.417000000     0.056000000
H     2.267000000    -7.771000000    -0.241000000
C     0.508000000    -8.339000000     0.773000000
H     0.976000000    -9.253000000     1.129000000
C    -0.767000000    -8.010000000     1.194000000
H    -1.285000000    -8.757000000     1.790000000
C    -1.324000000    -6.762000000     0.989000000
O    -2.574000000    -6.574000000     1.524000000
C    -3.115000000    -5.307000000     1.626000000
C    -4.237000000    -4.984000000     0.799000000
H    -4.573000000    -5.669000000     0.025000000
C    -4.677000000    -3.632000000     0.803000000
O    -5.508000000    -3.291000000    -0.244000000
C    -6.385000000    -2.303000000    -0.237000000
C    -6.118000000    -1.216000000    -1.116000000
H    -5.284000000    -1.237000000    -1.813000000
C    -7.430000000    -2.325000000     0.651000000
H    -7.533000000    -3.090000000     1.417000000
C    -8.278000000    -1.272000000     0.749000000
H    -8.995000000    -1.265000000     1.566000000
C    -8.043000000    -0.157000000    -0.082000000
H    -8.585000000     0.772000000     0.077000000
C    -6.932000000    -0.147000000    -1.031000000
O    -6.784000000     0.929000000    -1.857000000
C    -5.763000000     1.802000000    -1.913000000
C    -5.465000000     2.429000000    -3.115000000
H    -5.993000000     2.184000000    -4.033000000
C    -4.434000000     3.391000000    -3.188000000
O    -4.056000000     3.924000000    -4.442000000
C    -2.755000000     4.291000000    -4.735000000
C    -1.725000000     3.417000000    -5.149000000
H    -1.881000000     2.341000000    -5.114000000
C    -2.423000000     5.641000000    -4.663000000
H    -3.192000000     6.389000000    -4.490000000
C    -1.134000000     6.058000000    -4.863000000
H    -0.918000000     7.116000000    -4.737000000
C    -0.106000000     5.177000000    -5.256000000
H     0.939000000     5.461000000    -5.350000000
C    -0.483000000     3.847000000    -5.354000000
O     0.430000000     2.864000000    -5.649000000
C     1.551000000     2.475000000    -4.898000000
C     2.528000000     1.615000000    -5.390000000
H     2.411000000     1.188000000    -6.383000000
C     3.699000000     1.320000000    -4.655000000
O     4.712000000     0.607000000    -5.188000000
C     5.521000000    -0.259000000    -4.488000000
C     6.892000000    -0.039000000    -4.513000000
H     7.224000000     0.863000000    -5.022000000
C     7.775000000    -0.843000000    -3.759000000
H     8.812000000    -0.530000000    -3.669000000
C     7.251000000    -1.985000000    -3.140000000
H     7.965000000    -2.645000000    -2.654000000
C     5.904000000    -2.206000000    -3.170000000
C     5.070000000    -1.425000000    -3.915000000
H     4.047000000    -1.763000000    -4.059000000
C     0.017000000    -2.030000000    -1.681000000
H     0.488000000    -2.713000000    -2.383000000
C     0.907000000    -1.342000000    -0.821000000
H     1.977000000    -1.404000000    -1.001000000
C     0.370000000    -0.493000000     0.148000000
H     1.090000000    -0.002000000     0.798000000
C    -1.009000000    -0.410000000     0.223000000
H    -1.379000000     0.328000000     0.929000000
C    -1.928000000    -1.101000000    -0.622000000
H    -2.983000000    -0.983000000    -0.389000000
C    -1.341000000    -1.874000000    -1.646000000
C    -2.165000000    -2.532000000    -2.742000000
O    -3.361000000    -2.403000000    -2.731000000
O    -1.655000000    -3.146000000    -3.669000000
O    -2.507000000    -7.497000000    -2.025000000
H    -1.743000000    -7.334000000    -2.578000000
H    -2.998000000    -6.676000000    -2.046000000
O    -6.853000000    -0.760000000    -4.394000000
H    -7.003000000    -1.663000000    -4.115000000
H    -7.260000000    -0.227000000    -3.711000000
O    -4.210000000    -0.790000000    -4.882000000
H    -3.934000000    -1.171000000    -4.048000000
H    -5.161000000    -0.712000000    -4.807000000
O    -3.121000000    -4.484000000    -8.108000000
H    -3.614000000    -3.874000000    -7.559000000
H    -3.677000000    -5.262000000    -8.158000000
O    -6.377000000    -3.390000000    -3.454000000
H    -6.945000000    -3.998000000    -2.981000000
H    -5.595000000    -3.318000000    -2.908000000
O    -0.729000000    -5.937000000    -6.703000000
H    -1.147000000    -5.232000000    -7.198000000
H     0.209000000    -5.768000000    -6.792000000
O    -6.219000000    -5.568000000    -6.054000000
H    -5.524000000    -5.044000000    -5.655000000
H    -6.903000000    -5.606000000    -5.386000000
O    -3.874000000    -5.087000000    -2.591000000
H    -3.728000000    -4.145000000    -2.680000000
H    -4.154000000    -5.370000000    -3.461000000
O    -1.622000000    -1.512000000    -5.858000000
H    -2.389000000    -0.945000000    -5.781000000
H    -1.763000000    -2.195000000    -5.202000000
O     1.761000000    -6.523000000    -4.498000000
H     1.884000000    -5.574000000    -4.465000000
H     0.895000000    -6.666000000    -4.116000000
O     0.357000000    -1.808000000    -7.704000000
H    -0.081000000    -2.311000000    -8.390000000
H    -0.341000000    -1.582000000    -7.090000000
O    -4.115000000    -8.315000000    -4.217000000
H    -3.458000000    -8.052000000    -3.572000000
H    -3.686000000    -8.182000000    -5.063000000
O     2.922000000    -1.858000000    -6.860000000
H     3.119000000    -1.140000000    -7.462000000
H     1.990000000    -2.033000000    -6.994000000
O    -4.002000000    -3.701000000    -5.572000000
H    -4.548000000    -2.998000000    -5.924000000
H    -3.624000000    -3.333000000    -4.773000000
O     1.235000000    -3.723000000    -4.905000000
H     1.138000000    -3.325000000    -5.770000000
H     0.417000000    -3.514000000    -4.453000000
O    -4.753000000    -1.287000000    -8.199000000
H    -4.014000000    -0.783000000    -7.857000000
H    -5.524000000    -0.878000000    -7.807000000
O    -2.709000000    -7.946000000    -6.564000000
H    -1.996000000    -7.317000000    -6.451000000
H    -3.244000000    -7.577000000    -7.267000000
O    -2.884000000     1.013000000    -8.249000000
H    -2.163000000     0.750000000    -7.677000000
H    -2.549000000     1.773000000    -8.724000000
O    -0.975000000    -5.825000000    -3.915000000
H    -1.178000000    -4.953000000    -3.576000000
H    -1.064000000    -5.740000000    -4.864000000
