215
-1471.34842
C    -4.270000000    -1.472000000     0.895000000
H    -4.298000000    -0.426000000     0.600000000
C    -3.654000000    -1.837000000     2.060000000
C    -3.493000000    -3.213000000     2.315000000
H    -2.958000000    -3.524000000     3.209000000
C    -2.994000000    -0.722000000     2.867000000
O    -3.887000000     0.420000000     3.116000000
H    -2.135000000    -0.311000000     2.317000000
O    -2.622000000    -1.224000000     4.174000000
C    -1.317000000    -0.923000000     4.574000000
C    -0.358000000    -1.949000000     4.337000000
H    -0.707000000    -2.919000000     3.993000000
C     0.957000000    -1.601000000     4.461000000
O     1.745000000    -2.619000000     3.907000000
C     1.372000000    -0.414000000     4.904000000
C     2.820000000     0.035000000     4.928000000
H     3.051000000     0.832000000     5.639000000
C     3.368000000     0.568000000     3.596000000
C     3.253000000     1.906000000     3.210000000
H     2.895000000     2.603000000     3.963000000
H     3.453000000    -0.799000000     5.239000000
C     0.428000000     0.621000000     5.115000000
H     0.747000000     1.599000000     5.469000000
C    -1.006000000     0.331000000     5.029000000
C    -2.069000000     1.438000000     5.165000000
H    -1.725000000     2.200000000     5.867000000
H    -3.016000000     1.080000000     5.574000000
C    -2.341000000     2.203000000     3.878000000
C    -1.679000000     3.410000000     3.539000000
H    -1.043000000     3.949000000     4.236000000
C    -3.305000000     1.652000000     2.963000000
C    -3.438000000     2.326000000     1.724000000
H    -4.038000000     1.839000000     0.959000000
C    -2.759000000     3.483000000     1.381000000
O    -3.163000000     3.876000000     0.124000000
C    -2.138000000     3.966000000    -0.958000000
C    -2.842000000     3.719000000    -2.388000000
C    -2.113000000     3.975000000    -3.581000000
H    -1.092000000     4.345000000    -3.626000000
C    -3.961000000     2.972000000    -2.434000000
H    -4.433000000     2.540000000    -1.555000000
O    -1.394000000     5.190000000    -0.964000000
H    -1.444000000     3.113000000    -0.936000000
C    -1.884000000     4.078000000     2.256000000
C    -1.155000000     5.307000000     1.877000000
H    -0.692000000     5.733000000     2.770000000
H    -1.862000000     6.051000000     1.504000000
C     0.002000000     4.975000000     0.940000000
C     1.250000000     4.591000000     1.505000000
H     1.229000000     4.484000000     2.587000000
C    -0.135000000     4.986000000    -0.422000000
C     0.940000000     4.352000000    -1.142000000
H     0.842000000     4.255000000    -2.220000000
C     2.205000000     4.045000000    -0.547000000
O     3.088000000     3.387000000    -1.323000000
C     3.180000000     1.951000000    -1.138000000
C     3.312000000     1.315000000    -2.526000000
C     2.546000000     1.731000000    -3.649000000
H     1.906000000     2.609000000    -3.676000000
C     4.135000000     0.192000000    -2.657000000
H     4.775000000    -0.124000000    -1.837000000
O     4.347000000     1.641000000    -0.324000000
H     2.247000000     1.632000000    -0.651000000
C     2.334000000     4.129000000     0.820000000
C     3.582000000     3.709000000     1.496000000
H     3.562000000     4.350000000     2.379000000
H     4.508000000     3.911000000     0.953000000
C     3.651000000     2.291000000     1.904000000
C     4.052000000     1.347000000     0.968000000
C     4.028000000    -0.044000000     1.325000000
H     4.382000000    -0.811000000     0.641000000
C     3.724000000    -0.349000000     2.645000000
O     3.664000000    -1.737000000     2.906000000
C     2.409000000    -2.365000000     2.644000000
H     1.910000000    -1.606000000     2.024000000
C     2.653000000    -3.631000000     1.826000000
C     1.686000000    -4.617000000     1.799000000
H     0.760000000    -4.391000000     2.323000000
C     3.726000000    -3.848000000     0.907000000
H     4.482000000    -3.070000000     0.839000000
C     3.855000000    -5.032000000     0.138000000
O     4.882000000    -5.279000000    -0.757000000
C     2.927000000    -6.020000000     0.352000000
H     2.946000000    -6.961000000    -0.192000000
C     1.799000000    -5.816000000     1.087000000
O     0.837000000    -6.790000000     1.095000000
C    -0.351000000    -6.739000000     1.823000000
C    -1.555000000    -6.231000000     1.357000000
H    -1.686000000    -6.047000000     0.294000000
C    -0.278000000    -7.103000000     3.175000000
H     0.686000000    -7.481000000     3.507000000
C    -1.357000000    -7.003000000     4.019000000
H    -1.264000000    -7.428000000     5.015000000
C    -2.575000000    -6.427000000     3.582000000
H    -3.393000000    -6.231000000     4.269000000
C    -2.666000000    -5.985000000     2.246000000
O    -3.861000000    -5.500000000     1.687000000
C    -4.040000000    -4.201000000     1.467000000
C    -4.636000000    -3.757000000     0.293000000
H    -5.011000000    -4.509000000    -0.398000000
C    -4.714000000    -2.409000000     0.020000000
O    -5.162000000    -1.951000000    -1.203000000
C    -5.984000000    -0.911000000    -1.418000000
C    -5.629000000    -0.034000000    -2.433000000
H    -4.781000000    -0.186000000    -3.096000000
C    -7.098000000    -0.697000000    -0.636000000
H    -7.487000000    -1.431000000     0.065000000
C    -7.770000000     0.510000000    -0.758000000
H    -8.633000000     0.781000000    -0.156000000
C    -7.282000000     1.484000000    -1.655000000
H    -7.935000000     2.353000000    -1.660000000
C    -6.227000000     1.202000000    -2.540000000
O    -5.844000000     2.025000000    -3.616000000
C    -4.625000000     2.704000000    -3.577000000
C    -4.028000000     3.127000000    -4.757000000
H    -4.566000000     2.862000000    -5.664000000
C    -2.808000000     3.736000000    -4.782000000
O    -2.193000000     4.121000000    -5.979000000
C    -0.880000000     3.781000000    -6.291000000
C    -0.268000000     2.653000000    -5.755000000
H    -0.904000000     1.918000000    -5.268000000
C    -0.210000000     4.623000000    -7.159000000
H    -0.682000000     5.547000000    -7.483000000
C     1.046000000     4.283000000    -7.558000000
H     1.635000000     4.855000000    -8.271000000
C     1.662000000     3.028000000    -7.147000000
H     2.610000000     2.682000000    -7.551000000
C     0.961000000     2.251000000    -6.185000000
O     1.538000000     1.020000000    -5.784000000
C     2.484000000     0.878000000    -4.760000000
C     3.322000000    -0.204000000    -4.827000000
H     3.361000000    -0.899000000    -5.661000000
C     4.221000000    -0.558000000    -3.811000000
O     5.046000000    -1.592000000    -3.991000000
C     5.579000000    -2.449000000    -3.028000000
C     6.950000000    -2.458000000    -2.866000000
H     7.466000000    -1.779000000    -3.539000000
C     7.615000000    -3.304000000    -1.977000000
H     8.702000000    -3.315000000    -1.972000000
C     6.915000000    -4.217000000    -1.224000000
H     7.336000000    -4.920000000    -0.510000000
C     5.514000000    -4.339000000    -1.501000000
C     4.860000000    -3.428000000    -2.343000000
H     3.776000000    -3.499000000    -2.338000000
C     0.582000000    -1.223000000    -1.843000000
H     1.194000000    -1.932000000    -2.394000000
C     1.090000000    -0.974000000    -0.582000000
H     2.012000000    -1.441000000    -0.248000000
C     0.389000000    -0.191000000     0.404000000
H     0.927000000     0.092000000     1.386000000
C    -0.842000000     0.389000000    -0.040000000
H    -1.363000000     1.148000000     0.538000000
C    -1.297000000     0.122000000    -1.307000000
H    -2.233000000     0.608000000    -1.568000000
C    -0.665000000    -0.711000000    -2.236000000
C    -1.346000000    -1.009000000    -3.542000000
O    -2.247000000    -0.258000000    -3.819000000
O    -0.897000000    -1.832000000    -4.404000000
O    -6.495000000    -3.442000000    -4.265000000
H    -5.757000000    -2.840000000    -4.169000000
H    -6.935000000    -3.155000000    -5.065000000
O    -2.707000000    -3.724000000    -8.715000000
H    -1.779000000    -3.504000000    -8.630000000
H    -3.022000000    -3.166000000    -9.425000000
O     4.470000000    -4.856000000    -4.925000000
H     3.578000000    -4.749000000    -4.594000000
H     5.006000000    -4.309000000    -4.351000000
O     1.552000000    -3.130000000    -4.744000000
H     0.893000000    -2.444000000    -4.630000000
H     1.281000000    -3.823000000    -4.142000000
O    -4.485000000    -4.806000000    -6.216000000
H    -3.598000000    -4.565000000    -6.483000000
H    -4.783000000    -4.070000000    -5.682000000
O    -3.522000000    -0.260000000    -6.080000000
H    -3.071000000    -0.141000000    -5.244000000
H    -3.782000000    -1.181000000    -6.083000000
O    -2.649000000     1.937000000    -9.512000000
H    -2.157000000     1.135000000    -9.337000000
H    -1.977000000     2.606000000    -9.643000000
O    -1.190000000    -3.800000000    -1.368000000
H    -2.023000000    -4.121000000    -1.714000000
H    -1.383000000    -2.913000000    -1.063000000
O    -3.397000000    -5.792000000    -2.396000000
H    -4.347000000    -5.840000000    -2.506000000
H    -3.044000000    -6.051000000    -3.247000000
O    -1.738000000    -4.168000000    -5.304000000
H    -1.227000000    -3.387000000    -5.093000000
H    -1.347000000    -4.862000000    -4.773000000
O    -3.857000000    -2.535000000    -4.534000000
H    -3.600000000    -1.702000000    -4.138000000
H    -3.029000000    -2.962000000    -4.752000000
O     2.867000000    -3.405000000    -7.243000000
H     2.440000000    -3.311000000    -6.391000000
H     3.486000000    -4.124000000    -7.122000000
O    -6.157000000    -5.807000000    -3.073000000
H    -6.246000000    -4.931000000    -3.449000000
H    -6.715000000    -5.791000000    -2.295000000
O     0.308000000    -3.104000000    -8.533000000
H    -0.127000000    -2.306000000    -8.231000000
H     1.041000000    -3.220000000    -7.929000000
O    -1.758000000    -0.602000000    -9.298000000
H    -2.702000000    -0.755000000    -9.271000000
H    -1.470000000    -0.719000000    -8.393000000
O     0.713000000    -4.989000000    -3.023000000
H     0.516000000    -5.859000000    -3.369000000
H     0.104000000    -4.878000000    -2.293000000
O    -4.888000000     1.377000000    -7.715000000
H    -4.226000000     1.582000000    -8.375000000
H    -4.440000000     0.796000000    -7.100000000
O    -1.664000000    -6.968000000    -4.301000000
H    -2.316000000    -7.313000000    -4.911000000
H    -0.876000000    -7.483000000    -4.475000000
O    -0.400000000    -0.834000000    -6.997000000
H     0.219000000    -0.150000000    -6.740000000
H    -0.854000000    -1.063000000    -6.186000000
