215
-1455.52707
C     4.494000000    -0.802000000    -1.767000000
H     3.932000000    -1.708000000    -1.979000000
C     4.664000000    -0.303000000    -0.474000000
C     5.457000000     0.845000000    -0.284000000
H     5.635000000     1.258000000     0.705000000
C     4.071000000    -1.037000000     0.720000000
O     3.959000000    -2.464000000     0.505000000
H     3.121000000    -0.502000000     0.864000000
O     4.752000000    -0.843000000     1.930000000
C     3.980000000    -0.567000000     3.038000000
C     3.618000000     0.741000000     3.209000000
H     4.092000000     1.546000000     2.653000000
C     2.575000000     1.101000000     4.065000000
O     2.212000000     2.419000000     4.034000000
C     1.838000000     0.146000000     4.761000000
C     0.574000000     0.565000000     5.661000000
H     0.446000000    -0.051000000     6.554000000
C    -0.711000000     0.617000000     4.823000000
C    -1.532000000    -0.482000000     4.768000000
H    -1.323000000    -1.325000000     5.420000000
H     0.720000000     1.550000000     6.109000000
C     2.158000000    -1.195000000     4.563000000
H     1.587000000    -1.979000000     5.054000000
C     3.255000000    -1.528000000     3.731000000
C     3.396000000    -3.030000000     3.286000000
H     3.248000000    -3.766000000     4.079000000
H     4.442000000    -3.218000000     3.034000000
C     2.431000000    -3.464000000     2.175000000
C     1.237000000    -4.078000000     2.405000000
H     0.992000000    -4.216000000     3.455000000
C     2.822000000    -3.185000000     0.844000000
C     1.990000000    -3.617000000    -0.163000000
H     2.249000000    -3.470000000    -1.208000000
C     0.795000000    -4.258000000     0.138000000
O     0.046000000    -4.700000000    -0.908000000
C    -1.192000000    -3.953000000    -1.169000000
C    -1.326000000    -3.574000000    -2.668000000
C    -2.536000000    -3.593000000    -3.312000000
H    -3.419000000    -3.779000000    -2.706000000
C    -0.215000000    -3.147000000    -3.479000000
H     0.780000000    -3.099000000    -3.045000000
O    -2.291000000    -4.608000000    -0.597000000
H    -1.046000000    -2.998000000    -0.644000000
C     0.387000000    -4.514000000     1.443000000
C    -0.929000000    -5.214000000     1.865000000
H    -0.739000000    -5.549000000     2.887000000
H    -1.172000000    -6.073000000     1.237000000
C    -2.015000000    -4.200000000     1.727000000
C    -2.283000000    -3.475000000     2.894000000
H    -1.780000000    -3.565000000     3.854000000
C    -2.774000000    -4.062000000     0.588000000
C    -3.750000000    -3.046000000     0.513000000
H    -4.253000000    -2.857000000    -0.431000000
C    -3.985000000    -2.275000000     1.658000000
O    -4.799000000    -1.223000000     1.451000000
C    -4.190000000     0.055000000     1.157000000
C    -4.792000000     0.797000000    -0.110000000
C    -5.525000000     0.056000000    -1.027000000
H    -5.681000000    -0.987000000    -0.764000000
C    -4.564000000     2.155000000    -0.386000000
H    -3.930000000     2.715000000     0.296000000
O    -4.097000000     0.853000000     2.304000000
H    -3.151000000     0.055000000     0.795000000
C    -3.313000000    -2.461000000     2.830000000
C    -3.658000000    -1.554000000     4.024000000
H    -3.523000000    -2.088000000     4.967000000
H    -4.706000000    -1.294000000     3.861000000
C    -2.737000000    -0.439000000     3.978000000
C    -3.002000000     0.707000000     3.162000000
C    -2.058000000     1.723000000     3.156000000
H    -2.213000000     2.568000000     2.491000000
C    -1.022000000     1.713000000     3.997000000
O    -0.203000000     2.794000000     3.956000000
C     1.038000000     2.681000000     3.210000000
H     0.814000000     1.826000000     2.556000000
C     1.318000000     3.856000000     2.273000000
C     2.584000000     4.530000000     2.295000000
H     3.331000000     4.395000000     3.073000000
C     0.342000000     4.273000000     1.379000000
H    -0.674000000     3.905000000     1.489000000
C     0.577000000     5.253000000     0.431000000
O    -0.339000000     5.581000000    -0.438000000
C     1.828000000     5.939000000     0.355000000
H     2.037000000     6.679000000    -0.414000000
C     2.881000000     5.533000000     1.303000000
O     4.137000000     6.118000000     1.246000000
C     5.216000000     5.309000000     1.132000000
C     5.275000000     4.441000000    -0.004000000
H     4.388000000     4.398000000    -0.632000000
C     6.348000000     5.581000000     1.912000000
H     6.295000000     6.376000000     2.651000000
C     7.468000000     4.779000000     1.662000000
H     8.328000000     4.947000000     2.305000000
C     7.496000000     3.777000000     0.729000000
H     8.352000000     3.114000000     0.636000000
C     6.388000000     3.642000000    -0.155000000
O     6.528000000     2.742000000    -1.233000000
C     5.910000000     1.590000000    -1.363000000
C     5.769000000     1.105000000    -2.635000000
H     6.106000000     1.710000000    -3.472000000
C     5.122000000    -0.123000000    -2.822000000
O     4.915000000    -0.517000000    -4.150000000
C     4.149000000    -1.534000000    -4.528000000
C     2.794000000    -1.308000000    -4.714000000
H     2.355000000    -0.344000000    -4.471000000
C     4.757000000    -2.790000000    -4.797000000
H     5.834000000    -2.937000000    -4.767000000
C     3.986000000    -3.831000000    -5.177000000
H     4.429000000    -4.784000000    -5.455000000
C     2.603000000    -3.648000000    -5.344000000
H     2.036000000    -4.510000000    -5.686000000
C     2.040000000    -2.368000000    -5.143000000
O     0.732000000    -2.149000000    -5.469000000
C    -0.335000000    -2.625000000    -4.763000000
C    -1.573000000    -2.593000000    -5.373000000
H    -1.764000000    -2.200000000    -6.369000000
C    -2.664000000    -3.082000000    -4.609000000
O    -3.826000000    -3.007000000    -5.384000000
C    -5.030000000    -2.773000000    -4.831000000
C    -5.220000000    -1.561000000    -4.210000000
H    -4.394000000    -0.855000000    -4.236000000
C    -6.054000000    -3.707000000    -4.899000000
H    -5.850000000    -4.638000000    -5.421000000
C    -7.308000000    -3.445000000    -4.317000000
H    -8.105000000    -4.181000000    -4.390000000
C    -7.493000000    -2.271000000    -3.595000000
H    -8.483000000    -2.039000000    -3.211000000
C    -6.466000000    -1.333000000    -3.558000000
O    -6.777000000    -0.076000000    -3.180000000
C    -5.987000000     0.664000000    -2.268000000
C    -5.770000000     1.984000000    -2.512000000
H    -6.051000000     2.611000000    -3.354000000
C    -5.130000000     2.727000000    -1.529000000
O    -4.760000000     4.042000000    -1.872000000
C    -3.864000000     4.778000000    -1.003000000
C    -4.460000000     5.692000000    -0.126000000
H    -5.544000000     5.679000000    -0.048000000
C    -3.685000000     6.571000000     0.660000000
H    -4.213000000     7.326000000     1.238000000
C    -2.289000000     6.378000000     0.625000000
H    -1.734000000     6.925000000     1.383000000
C    -1.697000000     5.556000000    -0.297000000
C    -2.480000000     4.672000000    -1.064000000
H    -2.029000000     4.010000000    -1.800000000
C    -1.083000000     0.496000000    -1.479000000
H    -1.993000000     0.331000000    -2.050000000
C    -0.909000000    -0.237000000    -0.312000000
H    -1.623000000    -1.004000000    -0.025000000
C     0.177000000     0.000000000     0.482000000
H     0.328000000    -0.515000000     1.469000000
C     1.128000000     0.930000000     0.115000000
H     1.922000000     1.138000000     0.827000000
C     0.980000000     1.643000000    -1.046000000
H     1.745000000     2.330000000    -1.399000000
C    -0.177000000     1.475000000    -1.834000000
C    -0.253000000     2.214000000    -3.142000000
O     0.603000000     2.796000000    -3.692000000
O    -1.332000000     2.167000000    -3.675000000
O     4.958000000     6.583000000    -3.019000000
H     4.227000000     6.136000000    -3.444000000
H     5.739000000     6.194000000    -3.413000000
O    -1.319000000     3.278000000    -9.773000000
H    -1.175000000     4.128000000   -10.188000000
H    -1.967000000     3.452000000    -9.090000000
O     2.861000000     4.843000000    -3.467000000
H     1.928000000     5.056000000    -3.483000000
H     2.889000000     3.886000000    -3.491000000
O    -4.371000000     7.796000000    -2.919000000
H    -3.730000000     7.349000000    -3.473000000
H    -4.061000000     8.700000000    -2.875000000
O     4.982000000     2.394000000    -6.120000000
H     5.257000000     1.498000000    -6.318000000
H     4.058000000     2.421000000    -6.368000000
O    -2.114000000     6.626000000    -4.583000000
H    -1.170000000     6.498000000    -4.489000000
H    -2.465000000     5.743000000    -4.699000000
O    -3.194000000     1.328000000    -7.082000000
H    -2.353000000     0.974000000    -6.795000000
H    -3.681000000     0.566000000    -7.394000000
O     0.653000000     2.092000000    -8.105000000
H     0.064000000     2.510000000    -8.733000000
H     0.082000000     1.535000000    -7.576000000
O     0.215000000     5.551000000    -3.563000000
H     0.224000000     4.622000000    -3.331000000
H    -0.028000000     5.998000000    -2.752000000
O     1.333000000    -0.461000000    -8.765000000
H     0.414000000    -0.402000000    -9.026000000
H     1.559000000     0.426000000    -8.485000000
O    -6.115000000     5.440000000    -3.483000000
H    -5.653000000     4.738000000    -3.026000000
H    -5.803000000     6.243000000    -3.066000000
O    -0.644000000     0.724000000    -6.021000000
H    -0.281000000    -0.043000000    -5.578000000
H    -1.115000000     1.197000000    -5.335000000
O     0.673000000     5.497000000    -8.517000000
H     0.259000000     5.208000000    -7.704000000
H     1.385000000     6.070000000    -8.233000000
O     2.940000000     3.655000000    -8.877000000
H     2.716000000     3.174000000    -9.674000000
H     2.130000000     3.664000000    -8.368000000
O    -0.561000000     4.548000000    -6.326000000
H    -1.308000000     5.091000000    -6.076000000
H    -0.280000000     4.136000000    -5.509000000
O    -3.368000000     3.997000000    -7.997000000
H    -4.246000000     4.003000000    -8.376000000
H    -3.311000000     3.160000000    -7.536000000
O     2.142000000     1.796000000    -5.843000000
H     1.701000000     2.355000000    -5.202000000
H     1.726000000     2.014000000    -6.677000000
O    -3.356000000     3.633000000    -4.585000000
H    -2.615000000     3.170000000    -4.196000000
H    -4.106000000     3.059000000    -4.431000000
O     4.146000000    -0.574000000    -7.721000000
H     3.935000000    -0.407000000    -6.802000000
H     3.325000000    -0.884000000    -8.103000000
