215
-1464.80321
C    -4.506000000    -1.860000000     0.607000000
H    -4.733000000    -0.800000000     0.683000000
C    -3.701000000    -2.320000000     1.678000000
C    -3.505000000    -3.763000000     1.691000000
H    -2.955000000    -4.251000000     2.492000000
C    -3.024000000    -1.441000000     2.724000000
O    -3.864000000    -0.478000000     3.417000000
H    -2.277000000    -0.842000000     2.183000000
O    -2.386000000    -2.184000000     3.751000000
C    -1.089000000    -1.824000000     3.973000000
C    -0.049000000    -2.542000000     3.435000000
H    -0.220000000    -3.410000000     2.803000000
C     1.298000000    -2.227000000     3.678000000
O     2.250000000    -2.986000000     3.147000000
C     1.587000000    -1.076000000     4.427000000
C     3.040000000    -0.719000000     4.630000000
H     3.004000000    -0.104000000     5.532000000
C     3.564000000     0.132000000     3.505000000
C     3.447000000     1.544000000     3.568000000
H     2.984000000     2.058000000     4.407000000
H     3.607000000    -1.623000000     4.861000000
C     0.544000000    -0.421000000     5.076000000
H     0.823000000     0.517000000     5.549000000
C    -0.800000000    -0.715000000     4.820000000
C    -1.822000000     0.194000000     5.431000000
H    -1.378000000     0.765000000     6.249000000
H    -2.722000000    -0.335000000     5.752000000
C    -2.484000000     1.197000000     4.414000000
C    -1.860000000     2.420000000     4.196000000
H    -0.976000000     2.668000000     4.778000000
C    -3.394000000     0.777000000     3.420000000
C    -3.715000000     1.601000000     2.331000000
H    -4.433000000     1.347000000     1.555000000
C    -3.177000000     2.853000000     2.244000000
O    -3.488000000     3.548000000     1.132000000
C    -2.508000000     3.499000000     0.076000000
C    -3.220000000     3.518000000    -1.288000000
C    -2.599000000     4.056000000    -2.454000000
H    -1.685000000     4.623000000    -2.299000000
C    -4.477000000     2.844000000    -1.515000000
H    -5.073000000     2.442000000    -0.701000000
O    -1.689000000     4.664000000     0.173000000
H    -1.987000000     2.531000000     0.032000000
C    -2.194000000     3.292000000     3.156000000
C    -1.455000000     4.568000000     3.000000000
H    -1.225000000     4.888000000     4.019000000
H    -2.179000000     5.312000000     2.662000000
C    -0.226000000     4.373000000     2.084000000
C     1.079000000     4.044000000     2.613000000
H     1.218000000     3.857000000     3.675000000
C    -0.400000000     4.495000000     0.685000000
C     0.732000000     4.404000000    -0.168000000
H     0.605000000     4.567000000    -1.235000000
C     1.981000000     4.044000000     0.386000000
O     3.051000000     3.865000000    -0.554000000
C     3.396000000     2.447000000    -0.646000000
C     3.575000000     2.055000000    -2.061000000
C     2.574000000     2.424000000    -2.919000000
H     1.680000000     2.908000000    -2.536000000
C     4.491000000     1.086000000    -2.508000000
H     5.238000000     0.859000000    -1.752000000
O     4.604000000     2.283000000     0.090000000
H     2.546000000     1.815000000    -0.350000000
C     2.142000000     3.928000000     1.751000000
C     3.550000000     3.730000000     2.401000000
H     3.676000000     4.136000000     3.407000000
H     4.256000000     4.263000000     1.760000000
C     3.835000000     2.281000000     2.454000000
C     4.463000000     1.690000000     1.351000000
C     4.677000000     0.300000000     1.306000000
H     5.157000000    -0.173000000     0.453000000
C     4.237000000    -0.481000000     2.424000000
O     4.200000000    -1.840000000     2.347000000
C     2.939000000    -2.483000000     1.980000000
H     2.347000000    -1.723000000     1.450000000
C     3.056000000    -3.557000000     0.956000000
C     1.842000000    -4.234000000     0.573000000
H     0.927000000    -4.284000000     1.157000000
C     4.195000000    -3.742000000     0.171000000
H     5.048000000    -3.090000000     0.339000000
C     4.166000000    -4.394000000    -1.077000000
O     5.294000000    -4.457000000    -1.954000000
C     3.016000000    -5.147000000    -1.347000000
H     3.008000000    -5.723000000    -2.268000000
C     1.881000000    -5.095000000    -0.526000000
O     0.756000000    -5.767000000    -0.965000000
C    -0.194000000    -6.382000000    -0.160000000
C    -1.506000000    -5.937000000    -0.257000000
H    -1.739000000    -5.104000000    -0.916000000
C     0.133000000    -7.459000000     0.624000000
H     1.159000000    -7.801000000     0.736000000
C    -0.942000000    -8.011000000     1.357000000
H    -0.748000000    -8.906000000     1.942000000
C    -2.213000000    -7.512000000     1.422000000
H    -2.959000000    -8.014000000     2.033000000
C    -2.536000000    -6.376000000     0.653000000
O    -3.800000000    -5.913000000     0.620000000
C    -4.047000000    -4.564000000     0.686000000
C    -4.785000000    -4.011000000    -0.378000000
H    -5.032000000    -4.744000000    -1.142000000
C    -5.019000000    -2.688000000    -0.379000000
O    -5.909000000    -2.298000000    -1.370000000
C    -6.609000000    -1.131000000    -1.412000000
C    -6.053000000    -0.132000000    -2.145000000
H    -5.110000000    -0.156000000    -2.686000000
C    -7.878000000    -0.968000000    -0.872000000
H    -8.350000000    -1.727000000    -0.253000000
C    -8.561000000     0.182000000    -1.015000000
H    -9.512000000     0.304000000    -0.502000000
C    -7.957000000     1.214000000    -1.731000000
H    -8.429000000     2.175000000    -1.920000000
C    -6.720000000     1.048000000    -2.244000000
O    -6.156000000     2.095000000    -2.981000000
C    -4.950000000     2.759000000    -2.813000000
C    -4.401000000     3.354000000    -3.943000000
H    -4.778000000     3.160000000    -4.944000000
C    -3.139000000     3.968000000    -3.757000000
O    -2.539000000     4.403000000    -4.931000000
C    -1.201000000     4.419000000    -5.165000000
C    -0.474000000     3.303000000    -4.843000000
H    -1.096000000     2.501000000    -4.453000000
C    -0.565000000     5.546000000    -5.697000000
H    -1.235000000     6.368000000    -5.935000000
C     0.818000000     5.566000000    -5.914000000
H     1.317000000     6.318000000    -6.519000000
C     1.504000000     4.384000000    -5.695000000
H     2.476000000     4.338000000    -6.179000000
C     0.929000000     3.268000000    -5.125000000
O     1.512000000     2.049000000    -5.061000000
C     2.561000000     1.763000000    -4.227000000
C     3.482000000     0.809000000    -4.664000000
H     3.507000000     0.402000000    -5.672000000
C     4.514000000     0.522000000    -3.755000000
O     5.626000000    -0.229000000    -4.188000000
C     6.141000000    -1.195000000    -3.372000000
C     7.470000000    -1.040000000    -3.026000000
H     7.950000000    -0.080000000    -3.197000000
C     8.079000000    -2.066000000    -2.349000000
H     9.093000000    -1.895000000    -1.996000000
C     7.344000000    -3.208000000    -2.017000000
H     7.728000000    -4.098000000    -1.525000000
C     5.980000000    -3.341000000    -2.276000000
C     5.401000000    -2.335000000    -3.050000000
H     4.362000000    -2.452000000    -3.347000000
C     1.022000000    -0.848000000    -1.840000000
H     1.518000000    -0.914000000    -2.804000000
C     1.628000000    -0.398000000    -0.708000000
H     2.701000000    -0.242000000    -0.645000000
C     0.901000000     0.115000000     0.343000000
H     1.424000000     0.557000000     1.214000000
C    -0.511000000     0.090000000     0.337000000
H    -1.032000000     0.593000000     1.147000000
C    -1.141000000    -0.526000000    -0.732000000
H    -2.227000000    -0.520000000    -0.780000000
C    -0.355000000    -1.030000000    -1.823000000
C    -1.103000000    -1.707000000    -2.995000000
O    -2.308000000    -1.788000000    -3.049000000
O    -0.463000000    -2.297000000    -3.846000000
O    -5.513000000    -0.396000000    -5.585000000
H    -5.555000000     0.042000000    -6.435000000
H    -6.427000000    -0.568000000    -5.359000000
O    -3.951000000    -2.846000000    -4.693000000
H    -3.505000000    -2.436000000    -3.952000000
H    -4.585000000    -2.190000000    -4.984000000
O    -0.602000000    -2.252000000    -8.517000000
H    -0.672000000    -2.787000000    -9.307000000
H    -0.847000000    -2.842000000    -7.804000000
O     2.515000000    -4.723000000    -6.237000000
H     1.968000000    -4.400000000    -5.520000000
H     3.310000000    -4.192000000    -6.190000000
O    -6.263000000    -4.564000000    -5.142000000
H    -5.397000000    -4.159000000    -5.103000000
H    -6.707000000    -4.111000000    -5.859000000
O    -2.890000000     0.098000000    -5.081000000
H    -3.832000000     0.091000000    -4.912000000
H    -2.531000000    -0.542000000    -4.465000000
O     1.118000000     1.929000000    -8.157000000
H     0.599000000     2.699000000    -7.923000000
H     0.730000000     1.216000000    -7.649000000
O    -0.864000000     0.190000000    -7.347000000
H    -0.802000000    -0.640000000    -7.820000000
H    -1.482000000     0.016000000    -6.637000000
O    -1.468000000    -3.571000000    -6.198000000
H    -2.391000000    -3.319000000    -6.168000000
H    -1.078000000    -3.141000000    -5.437000000
O     4.215000000    -2.265000000    -6.737000000
H     4.677000000    -1.882000000    -7.483000000
H     4.266000000    -1.596000000    -6.055000000
O    -2.413000000    -4.901000000    -3.227000000
H    -1.853000000    -4.144000000    -3.056000000
H    -3.275000000    -4.525000000    -3.404000000
O     0.762000000    -4.583000000    -4.048000000
H     0.492000000    -3.675000000    -4.184000000
H     0.386000000    -4.822000000    -3.201000000
O    -4.046000000    -1.733000000    -8.552000000
H    -4.380000000    -1.667000000    -7.657000000
H    -3.580000000    -0.910000000    -8.695000000
O    -5.554000000    -6.108000000    -3.010000000
H    -5.704000000    -5.469000000    -3.707000000
H    -6.416000000    -6.241000000    -2.616000000
O     2.084000000    -1.529000000    -8.574000000
H     2.663000000    -1.931000000    -7.927000000
H     1.243000000    -1.446000000    -8.124000000
O    -0.313000000    -5.930000000    -7.332000000
H     0.618000000    -6.079000000    -7.497000000
H    -0.331000000    -5.256000000    -6.653000000
O    -3.067000000     0.755000000    -9.037000000
H    -3.316000000     1.679000000    -9.035000000
H    -2.164000000     0.749000000    -8.719000000
O    -0.907000000    -7.050000000    -4.183000000
H    -1.654000000    -6.454000000    -4.237000000
H    -0.141000000    -6.484000000    -4.278000000
O     1.451000000    -1.221000000    -5.475000000
H     1.011000000    -0.380000000    -5.596000000
H     0.827000000    -1.748000000    -4.976000000
