215
-1461.47974
C    -4.603000000    -1.168000000     1.514000000
H    -4.707000000    -0.091000000     1.407000000
C    -3.629000000    -1.597000000     2.438000000
C    -3.477000000    -2.966000000     2.679000000
H    -2.762000000    -3.343000000     3.406000000
C    -2.640000000    -0.594000000     3.045000000
O    -3.220000000     0.648000000     3.417000000
H    -1.733000000    -0.463000000     2.436000000
O    -2.106000000    -1.106000000     4.266000000
C    -0.759000000    -0.876000000     4.566000000
C     0.130000000    -1.907000000     4.244000000
H    -0.349000000    -2.861000000     4.035000000
C     1.467000000    -1.675000000     4.216000000
O     2.205000000    -2.659000000     3.667000000
C     1.998000000    -0.382000000     4.502000000
C     3.541000000    -0.199000000     4.357000000
H     3.791000000     0.563000000     5.098000000
C     3.969000000     0.185000000     2.971000000
C     4.068000000     1.552000000     2.593000000
H     3.844000000     2.346000000     3.300000000
H     4.091000000    -1.036000000     4.792000000
C     1.130000000     0.693000000     4.878000000
H     1.590000000     1.670000000     5.000000000
C    -0.257000000     0.429000000     4.899000000
C    -1.215000000     1.603000000     5.204000000
H    -0.779000000     2.242000000     5.975000000
H    -2.143000000     1.230000000     5.643000000
C    -1.605000000     2.340000000     3.991000000
C    -0.855000000     3.506000000     3.538000000
H     0.016000000     3.820000000     4.108000000
C    -2.571000000     1.826000000     3.131000000
C    -2.955000000     2.472000000     1.995000000
H    -3.791000000     2.014000000     1.473000000
C    -2.344000000     3.703000000     1.662000000
O    -2.638000000     4.194000000     0.363000000
C    -1.851000000     3.779000000    -0.711000000
C    -2.717000000     3.468000000    -1.989000000
C    -2.113000000     3.684000000    -3.269000000
H    -1.156000000     4.193000000    -3.349000000
C    -3.950000000     2.807000000    -1.924000000
H    -4.397000000     2.752000000    -0.934000000
O    -0.821000000     4.753000000    -1.020000000
H    -1.327000000     2.855000000    -0.426000000
C    -1.245000000     4.133000000     2.384000000
C    -0.371000000     5.226000000     1.901000000
H     0.113000000     5.820000000     2.680000000
H    -1.027000000     5.875000000     1.318000000
C     0.719000000     4.719000000     0.831000000
C     1.954000000     4.299000000     1.305000000
H     2.224000000     4.371000000     2.355000000
C     0.404000000     4.513000000    -0.478000000
C     1.365000000     4.213000000    -1.455000000
H     1.001000000     4.032000000    -2.463000000
C     2.626000000     3.806000000    -0.968000000
O     3.457000000     3.095000000    -1.778000000
C     3.388000000     1.631000000    -1.798000000
C     3.476000000     0.991000000    -3.162000000
C     2.879000000     1.651000000    -4.239000000
H     2.533000000     2.674000000    -4.118000000
C     3.860000000    -0.350000000    -3.373000000
H     4.052000000    -1.007000000    -2.528000000
O     4.578000000     1.179000000    -1.004000000
H     2.551000000     1.230000000    -1.208000000
C     2.909000000     3.815000000     0.392000000
C     4.275000000     3.387000000     0.937000000
H     4.472000000     4.016000000     1.808000000
H     5.083000000     3.582000000     0.228000000
C     4.312000000     1.933000000     1.242000000
C     4.452000000     0.899000000     0.303000000
C     4.313000000    -0.428000000     0.640000000
H     4.309000000    -1.169000000    -0.155000000
C     4.103000000    -0.805000000     1.958000000
O     3.932000000    -2.090000000     2.135000000
C     2.596000000    -2.604000000     2.295000000
H     1.992000000    -1.967000000     1.632000000
C     2.427000000    -3.980000000     1.560000000
C     1.547000000    -4.933000000     2.077000000
H     1.069000000    -4.877000000     3.052000000
C     3.011000000    -4.122000000     0.299000000
H     3.798000000    -3.425000000     0.024000000
C     2.682000000    -5.232000000    -0.431000000
O     3.098000000    -5.404000000    -1.757000000
C     1.677000000    -6.171000000     0.025000000
H     1.346000000    -6.943000000    -0.665000000
C     1.215000000    -6.009000000     1.294000000
O     0.414000000    -7.044000000     1.856000000
C    -0.780000000    -6.801000000     2.494000000
C    -1.843000000    -6.047000000     1.883000000
H    -1.799000000    -5.588000000     0.898000000
C    -1.032000000    -7.461000000     3.705000000
H    -0.218000000    -8.106000000     4.027000000
C    -2.132000000    -7.117000000     4.496000000
H    -2.343000000    -7.510000000     5.487000000
C    -3.152000000    -6.337000000     3.914000000
H    -4.047000000    -6.244000000     4.524000000
C    -2.977000000    -5.863000000     2.638000000
O    -4.020000000    -5.230000000     2.026000000
C    -4.225000000    -3.863000000     1.932000000
C    -5.236000000    -3.417000000     1.068000000
H    -5.922000000    -4.095000000     0.567000000
C    -5.413000000    -2.085000000     0.804000000
O    -6.504000000    -1.631000000     0.010000000
C    -6.670000000    -0.327000000    -0.294000000
C    -6.092000000     0.225000000    -1.467000000
H    -5.473000000    -0.394000000    -2.112000000
C    -7.520000000     0.505000000     0.514000000
H    -7.966000000     0.111000000     1.423000000
C    -7.849000000     1.753000000     0.024000000
H    -8.635000000     2.326000000     0.510000000
C    -7.290000000     2.331000000    -1.128000000
H    -7.421000000     3.399000000    -1.286000000
C    -6.354000000     1.538000000    -1.862000000
O    -5.834000000     2.000000000    -3.042000000
C    -4.632000000     2.510000000    -3.122000000
C    -4.026000000     2.629000000    -4.370000000
H    -4.632000000     2.351000000    -5.229000000
C    -2.758000000     3.240000000    -4.447000000
O    -2.138000000     3.485000000    -5.713000000
C    -0.829000000     3.768000000    -5.893000000
C     0.047000000     2.710000000    -6.118000000
H    -0.380000000     1.717000000    -6.234000000
C    -0.416000000     5.072000000    -5.898000000
H    -1.147000000     5.823000000    -5.608000000
C     0.927000000     5.378000000    -6.157000000
H     1.384000000     6.359000000    -6.053000000
C     1.811000000     4.307000000    -6.407000000
H     2.841000000     4.644000000    -6.488000000
C     1.366000000     2.999000000    -6.457000000
O     2.279000000     1.963000000    -6.557000000
C     2.772000000     1.160000000    -5.533000000
C     3.270000000    -0.091000000    -5.781000000
H     3.147000000    -0.465000000    -6.794000000
C     3.822000000    -0.824000000    -4.696000000
O     4.219000000    -2.071000000    -5.027000000
C     4.572000000    -2.956000000    -4.037000000
C     5.907000000    -2.982000000    -3.668000000
H     6.581000000    -2.289000000    -4.164000000
C     6.262000000    -3.709000000    -2.556000000
H     7.276000000    -3.778000000    -2.170000000
C     5.319000000    -4.498000000    -1.894000000
H     5.658000000    -5.123000000    -1.072000000
C     4.024000000    -4.583000000    -2.347000000
C     3.631000000    -3.833000000    -3.499000000
H     2.621000000    -3.876000000    -3.900000000
C     0.498000000    -1.468000000    -2.170000000
H     0.956000000    -2.190000000    -2.842000000
C     1.134000000    -1.000000000    -0.962000000
H     2.162000000    -1.197000000    -0.669000000
C     0.453000000    -0.166000000    -0.113000000
H     0.875000000     0.176000000     0.828000000
C    -0.808000000     0.324000000    -0.498000000
H    -1.462000000     0.894000000     0.157000000
C    -1.373000000    -0.026000000    -1.694000000
H    -2.365000000     0.282000000    -2.014000000
C    -0.735000000    -1.004000000    -2.489000000
C    -1.335000000    -1.376000000    -3.855000000
O    -2.067000000    -0.612000000    -4.467000000
O    -0.991000000    -2.432000000    -4.375000000
O    -2.010000000    -2.435000000    -6.695000000
H    -1.293000000    -1.949000000    -7.101000000
H    -1.769000000    -2.491000000    -5.771000000
O     3.801000000    -6.354000000    -5.397000000
H     3.817000000    -5.440000000    -5.681000000
H     3.699000000    -6.854000000    -6.206000000
O    -1.029000000    -5.105000000    -4.398000000
H    -0.762000000    -4.191000000    -4.498000000
H    -1.895000000    -5.148000000    -4.804000000
O    -2.162000000    -0.373000000    -9.719000000
H    -2.063000000     0.303000000   -10.389000000
H    -2.129000000     0.105000000    -8.890000000
O    -4.760000000     1.649000000    -8.722000000
H    -4.205000000     1.084000000    -8.184000000
H    -4.822000000     1.194000000    -9.562000000
O    -2.152000000     2.910000000    -9.128000000
H    -1.780000000     3.287000000    -8.330000000
H    -3.074000000     2.765000000    -8.917000000
O    -0.976000000    -5.596000000    -1.602000000
H    -1.034000000    -5.336000000    -2.522000000
H    -1.000000000    -4.771000000    -1.118000000
O     0.827000000    -4.909000000    -9.605000000
H     1.678000000    -4.526000000    -9.819000000
H     0.203000000    -4.195000000    -9.738000000
O     0.431000000    -7.919000000    -3.728000000
H    -0.458000000    -7.585000000    -3.842000000
H     0.970000000    -7.134000000    -3.621000000
O    -4.538000000    -1.673000000    -4.885000000
H    -3.849000000    -1.011000000    -4.818000000
H    -4.196000000    -2.424000000    -4.400000000
O    -6.869000000    -0.180000000    -4.665000000
H    -6.607000000     0.670000000    -4.312000000
H    -6.048000000    -0.664000000    -4.756000000
O     1.004000000    -2.277000000    -6.530000000
H     1.742000000    -2.531000000    -5.977000000
H     0.473000000    -1.706000000    -5.974000000
O    -5.224000000    -2.796000000    -7.470000000
H    -4.994000000    -2.585000000    -6.565000000
H    -4.590000000    -2.311000000    -7.998000000
O    -2.621000000    -5.022000000    -7.567000000
H    -2.444000000    -4.089000000    -7.449000000
H    -2.980000000    -5.305000000    -6.726000000
O     0.139000000    -6.138000000    -6.741000000
H    -0.129000000    -5.832000000    -5.874000000
H     0.146000000    -5.348000000    -7.282000000
O    -0.754000000    -2.927000000   -10.311000000
H    -1.584000000    -3.395000000   -10.215000000
H    -0.962000000    -2.021000000   -10.082000000
O    -4.230000000    -5.440000000    -5.041000000
H    -4.824000000    -6.025000000    -4.571000000
H    -4.572000000    -5.419000000    -5.935000000
O    -1.891000000    -7.900000000    -0.732000000
H    -1.568000000    -7.088000000    -1.122000000
H    -2.736000000    -8.051000000    -1.157000000
O    -3.092000000     0.169000000    -6.951000000
H    -3.399000000    -0.737000000    -6.975000000
H    -2.672000000     0.257000000    -6.095000000
