215
-1472.42434
C    -5.167000000    -1.512000000     1.442000000
H    -5.603000000    -0.532000000     1.618000000
C    -3.955000000    -1.884000000     2.039000000
C    -3.505000000    -3.143000000     1.826000000
H    -2.647000000    -3.428000000     2.430000000
C    -3.044000000    -0.829000000     2.661000000
O    -3.772000000     0.383000000     2.974000000
H    -2.233000000    -0.569000000     1.965000000
O    -2.477000000    -1.284000000     3.906000000
C    -1.143000000    -1.048000000     4.195000000
C    -0.162000000    -2.079000000     4.026000000
H    -0.573000000    -2.997000000     3.614000000
C     1.195000000    -1.774000000     4.203000000
O     2.211000000    -2.607000000     3.711000000
C     1.636000000    -0.488000000     4.707000000
C     3.107000000    -0.071000000     4.795000000
H     3.087000000     0.651000000     5.614000000
C     3.551000000     0.428000000     3.431000000
C     3.474000000     1.828000000     3.167000000
H     3.049000000     2.520000000     3.889000000
H     3.747000000    -0.934000000     4.987000000
C     0.623000000     0.401000000     5.104000000
H     0.967000000     1.336000000     5.540000000
C    -0.744000000     0.176000000     4.812000000
C    -1.828000000     1.183000000     5.128000000
H    -1.429000000     1.823000000     5.917000000
H    -2.711000000     0.716000000     5.571000000
C    -2.264000000     2.033000000     3.932000000
C    -1.616000000     3.215000000     3.655000000
H    -0.922000000     3.526000000     4.432000000
C    -3.227000000     1.593000000     2.949000000
C    -3.604000000     2.409000000     1.885000000
H    -4.454000000     2.117000000     1.274000000
C    -2.925000000     3.552000000     1.635000000
O    -3.165000000     4.077000000     0.403000000
C    -2.134000000     3.755000000    -0.584000000
C    -2.683000000     3.357000000    -1.939000000
C    -2.357000000     3.907000000    -3.167000000
H    -1.692000000     4.766000000    -3.198000000
C    -3.672000000     2.355000000    -1.972000000
H    -4.038000000     1.803000000    -1.110000000
O    -1.198000000     4.900000000    -0.708000000
H    -1.577000000     2.908000000    -0.158000000
C    -1.867000000     3.967000000     2.469000000
C    -1.085000000     5.167000000     2.079000000
H    -0.745000000     5.621000000     3.012000000
H    -1.763000000     5.948000000     1.729000000
C     0.162000000     4.919000000     1.206000000
C     1.434000000     4.692000000     1.735000000
H     1.566000000     4.743000000     2.813000000
C     0.028000000     4.741000000    -0.117000000
C     1.097000000     4.436000000    -0.945000000
H     0.904000000     4.243000000    -1.997000000
C     2.364000000     4.104000000    -0.390000000
O     3.277000000     3.486000000    -1.233000000
C     3.541000000     2.075000000    -1.146000000
C     3.568000000     1.435000000    -2.561000000
C     2.705000000     1.833000000    -3.598000000
H     2.009000000     2.649000000    -3.419000000
C     4.340000000     0.223000000    -2.747000000
H     4.892000000    -0.226000000    -1.926000000
O     4.671000000     1.856000000    -0.281000000
H     2.690000000     1.562000000    -0.675000000
C     2.507000000     4.251000000     0.975000000
C     3.770000000     3.777000000     1.690000000
H     4.133000000     4.510000000     2.413000000
H     4.540000000     3.913000000     0.928000000
C     3.895000000     2.333000000     1.947000000
C     4.374000000     1.442000000     0.988000000
C     4.500000000     0.090000000     1.173000000
H     4.835000000    -0.562000000     0.370000000
C     4.030000000    -0.425000000     2.390000000
O     3.888000000    -1.798000000     2.475000000
C     2.552000000    -2.362000000     2.325000000
H     1.799000000    -1.737000000     1.824000000
C     2.632000000    -3.655000000     1.460000000
C     1.773000000    -4.729000000     1.807000000
H     1.043000000    -4.656000000     2.608000000
C     3.571000000    -3.825000000     0.469000000
H     4.341000000    -3.083000000     0.276000000
C     3.636000000    -5.011000000    -0.261000000
O     4.518000000    -5.192000000    -1.315000000
C     2.777000000    -6.050000000     0.006000000
H     2.836000000    -6.918000000    -0.645000000
C     1.855000000    -5.886000000     1.019000000
O     0.975000000    -6.922000000     1.167000000
C    -0.329000000    -6.665000000     1.676000000
C    -1.253000000    -5.976000000     0.928000000
H    -0.922000000    -5.602000000    -0.038000000
C    -0.665000000    -7.398000000     2.823000000
H     0.082000000    -7.998000000     3.336000000
C    -1.941000000    -7.193000000     3.392000000
H    -2.247000000    -7.781000000     4.254000000
C    -2.869000000    -6.448000000     2.670000000
H    -3.838000000    -6.358000000     3.154000000
C    -2.537000000    -5.834000000     1.429000000
O    -3.524000000    -5.257000000     0.689000000
C    -4.145000000    -4.021000000     0.964000000
C    -5.352000000    -3.704000000     0.450000000
H    -5.855000000    -4.398000000    -0.218000000
C    -5.826000000    -2.438000000     0.652000000
O    -6.921000000    -2.190000000    -0.120000000
C    -7.068000000    -0.940000000    -0.831000000
C    -6.105000000    -0.638000000    -1.796000000
H    -5.348000000    -1.341000000    -2.135000000
C    -8.130000000    -0.131000000    -0.554000000
H    -8.926000000    -0.420000000     0.127000000
C    -8.165000000     1.108000000    -1.176000000
H    -8.940000000     1.832000000    -0.936000000
C    -7.234000000     1.402000000    -2.132000000
H    -7.284000000     2.345000000    -2.670000000
C    -6.125000000     0.607000000    -2.339000000
O    -5.137000000     0.943000000    -3.282000000
C    -4.286000000     2.018000000    -3.202000000
C    -3.798000000     2.452000000    -4.406000000
H    -4.217000000     2.116000000    -5.351000000
C    -2.877000000     3.427000000    -4.355000000
O    -2.351000000     3.853000000    -5.552000000
C    -0.989000000     3.908000000    -5.790000000
C    -0.219000000     2.742000000    -5.568000000
H    -0.588000000     1.780000000    -5.222000000
C    -0.439000000     5.116000000    -6.178000000
H    -1.072000000     5.979000000    -6.372000000
C     0.939000000     5.169000000    -6.487000000
H     1.371000000     6.038000000    -6.977000000
C     1.763000000     4.013000000    -6.315000000
H     2.754000000     3.934000000    -6.755000000
C     1.144000000     2.828000000    -5.875000000
O     2.047000000     1.759000000    -5.914000000
C     2.742000000     1.232000000    -4.846000000
C     3.635000000     0.206000000    -5.087000000
H     3.767000000    -0.270000000    -6.056000000
C     4.427000000    -0.323000000    -4.053000000
O     5.355000000    -1.367000000    -4.237000000
C     5.818000000    -2.315000000    -3.324000000
C     7.229000000    -2.480000000    -3.094000000
H     7.907000000    -1.978000000    -3.779000000
C     7.570000000    -3.427000000    -2.159000000
H     8.639000000    -3.545000000    -2.005000000
C     6.638000000    -4.250000000    -1.537000000
H     7.045000000    -4.971000000    -0.833000000
C     5.318000000    -4.220000000    -1.908000000
C     4.863000000    -3.241000000    -2.791000000
H     3.800000000    -3.188000000    -3.009000000
C     1.058000000    -0.769000000    -2.213000000
H     1.731000000    -1.266000000    -2.907000000
C     1.384000000    -0.594000000    -0.860000000
H     2.321000000    -0.919000000    -0.414000000
C     0.405000000    -0.026000000     0.027000000
H     0.734000000     0.302000000     1.012000000
C    -0.839000000     0.324000000    -0.470000000
H    -1.587000000     0.698000000     0.225000000
C    -1.194000000     0.069000000    -1.808000000
H    -2.218000000     0.152000000    -2.162000000
C    -0.221000000    -0.461000000    -2.679000000
C    -0.752000000    -0.929000000    -4.031000000
O    -1.818000000    -0.553000000    -4.400000000
O    -0.152000000    -1.863000000    -4.526000000
O    -2.771000000    -4.218000000    -7.589000000
H    -2.496000000    -3.752000000    -8.378000000
H    -2.211000000    -3.868000000    -6.896000000
O    -5.325000000    -0.036000000    -7.438000000
H    -4.441000000     0.266000000    -7.646000000
H    -5.207000000    -0.622000000    -6.690000000
O     2.359000000    -5.704000000    -5.932000000
H     2.541000000    -6.535000000    -5.493000000
H     1.968000000    -5.155000000    -5.253000000
O     1.471000000    -3.903000000    -3.770000000
H     0.845000000    -3.287000000    -4.151000000
H     0.949000000    -4.435000000    -3.170000000
O    -2.470000000    -6.809000000    -6.669000000
H    -2.848000000    -6.956000000    -7.536000000
H    -2.381000000    -5.858000000    -6.605000000
O     2.455000000    -0.144000000    -9.068000000
H     3.034000000    -0.165000000    -9.830000000
H     2.797000000    -0.826000000    -8.489000000
O    -2.424000000     0.371000000    -7.064000000
H    -1.773000000     0.023000000    -7.674000000
H    -2.150000000     0.042000000    -6.208000000
O    -0.738000000     3.406000000    -9.190000000
H    -0.546000000     2.479000000    -9.334000000
H    -0.298000000     3.616000000    -8.366000000
O    -0.374000000    -3.395000000    -0.974000000
H     0.574000000    -3.500000000    -0.891000000
H    -0.489000000    -2.501000000    -1.294000000
O    -3.824000000    -7.003000000    -1.632000000
H    -3.500000000    -6.102000000    -1.655000000
H    -3.239000000    -7.482000000    -2.218000000
O    -1.909000000    -3.734000000    -4.979000000
H    -1.265000000    -3.033000000    -4.878000000
H    -1.920000000    -4.174000000    -4.129000000
O    -4.181000000    -1.721000000    -5.416000000
H    -3.466000000    -1.153000000    -5.129000000
H    -3.889000000    -2.605000000    -5.193000000
O     2.752000000    -2.351000000    -7.109000000
H     3.105000000    -2.553000000    -6.243000000
H     2.919000000    -3.139000000    -7.626000000
O    -1.323000000    -2.369000000    -9.156000000
H    -1.669000000    -1.579000000    -9.571000000
H    -0.729000000    -2.043000000    -8.479000000
O    -0.024000000     0.921000000    -9.868000000
H     0.735000000     0.494000000    -9.473000000
H     0.345000000     1.491000000   -10.543000000
O    -2.011000000    -5.177000000    -2.463000000
H    -1.335000000    -5.836000000    -2.621000000
H    -1.530000000    -4.412000000    -2.148000000
O    -3.251000000     3.079000000    -7.893000000
H    -2.859000000     3.119000000    -7.021000000
H    -2.957000000     2.240000000    -8.249000000
O     0.239000000    -6.571000000    -2.802000000
H     1.136000000    -6.704000000    -2.494000000
H     0.120000000    -7.230000000    -3.486000000
O     0.274000000    -1.455000000    -7.183000000
H     1.172000000    -1.635000000    -7.462000000
H     0.295000000    -1.551000000    -6.231000000
