215
-1458.26722
C    -4.574000000    -1.469000000     0.789000000
H    -4.689000000    -0.399000000     0.638000000
C    -3.780000000    -1.991000000     1.828000000
C    -3.639000000    -3.396000000     2.019000000
H    -3.152000000    -3.813000000     2.897000000
C    -2.979000000    -0.973000000     2.695000000
O    -3.776000000     0.194000000     2.899000000
H    -2.133000000    -0.663000000     2.064000000
O    -2.494000000    -1.388000000     4.006000000
C    -1.148000000    -1.175000000     4.244000000
C    -0.201000000    -2.143000000     3.999000000
H    -0.638000000    -3.090000000     3.692000000
C     1.188000000    -1.889000000     4.117000000
O     2.053000000    -2.799000000     3.683000000
C     1.583000000    -0.674000000     4.621000000
C     3.067000000    -0.250000000     4.711000000
H     3.144000000     0.504000000     5.497000000
C     3.600000000     0.283000000     3.393000000
C     3.556000000     1.640000000     3.204000000
H     3.184000000     2.228000000     4.038000000
H     3.663000000    -1.101000000     5.046000000
C     0.594000000     0.293000000     4.937000000
H     0.866000000     1.226000000     5.423000000
C    -0.689000000     0.045000000     4.724000000
C    -1.800000000     1.073000000     5.045000000
H    -1.525000000     1.649000000     5.931000000
H    -2.647000000     0.536000000     5.478000000
C    -2.145000000     1.841000000     3.766000000
C    -1.531000000     3.078000000     3.540000000
H    -0.619000000     3.265000000     4.100000000
C    -3.101000000     1.423000000     2.881000000
C    -3.356000000     2.248000000     1.804000000
H    -4.038000000     1.889000000     1.037000000
C    -2.756000000     3.463000000     1.568000000
O    -3.077000000     4.146000000     0.391000000
C    -2.118000000     3.865000000    -0.656000000
C    -2.868000000     3.723000000    -1.974000000
C    -2.201000000     3.666000000    -3.163000000
H    -1.143000000     3.907000000    -3.092000000
C    -4.240000000     3.360000000    -1.990000000
H    -4.709000000     3.068000000    -1.054000000
O    -1.205000000     5.008000000    -0.718000000
H    -1.495000000     2.983000000    -0.447000000
C    -1.813000000     3.910000000     2.479000000
C    -1.010000000     5.166000000     2.248000000
H    -0.621000000     5.555000000     3.191000000
H    -1.725000000     5.894000000     1.861000000
C     0.149000000     4.848000000     1.240000000
C     1.410000000     4.452000000     1.698000000
H     1.591000000     4.330000000     2.763000000
C     0.033000000     4.798000000    -0.132000000
C     1.065000000     4.353000000    -0.982000000
H     0.906000000     4.200000000    -2.046000000
C     2.293000000     4.024000000    -0.496000000
O     3.258000000     3.514000000    -1.276000000
C     3.455000000     2.141000000    -1.237000000
C     3.632000000     1.439000000    -2.607000000
C     2.828000000     1.899000000    -3.670000000
H     2.233000000     2.794000000    -3.507000000
C     4.392000000     0.277000000    -2.747000000
H     4.940000000    -0.113000000    -1.894000000
O     4.573000000     1.717000000    -0.419000000
H     2.543000000     1.748000000    -0.765000000
C     2.508000000     4.080000000     0.902000000
C     3.792000000     3.643000000     1.640000000
H     3.819000000     4.142000000     2.611000000
H     4.714000000     3.934000000     1.132000000
C     3.962000000     2.169000000     1.915000000
C     4.372000000     1.282000000     0.880000000
C     4.313000000    -0.089000000     1.122000000
H     4.359000000    -0.790000000     0.293000000
C     3.838000000    -0.571000000     2.301000000
O     3.886000000    -1.911000000     2.505000000
C     2.581000000    -2.542000000     2.384000000
H     1.850000000    -1.918000000     1.849000000
C     2.519000000    -3.775000000     1.511000000
C     1.536000000    -4.745000000     1.598000000
H     0.729000000    -4.691000000     2.323000000
C     3.579000000    -3.929000000     0.603000000
H     4.155000000    -3.027000000     0.412000000
C     3.554000000    -5.063000000    -0.238000000
O     4.436000000    -5.185000000    -1.303000000
C     2.595000000    -6.068000000    -0.094000000
H     2.692000000    -6.962000000    -0.704000000
C     1.602000000    -5.946000000     0.861000000
O     0.610000000    -6.982000000     0.979000000
C    -0.521000000    -6.735000000     1.690000000
C    -1.704000000    -6.315000000     1.051000000
H    -1.685000000    -6.048000000    -0.002000000
C    -0.542000000    -7.081000000     3.022000000
H     0.340000000    -7.469000000     3.524000000
C    -1.752000000    -7.130000000     3.711000000
H    -1.896000000    -7.672000000     4.642000000
C    -2.923000000    -6.570000000     3.159000000
H    -3.831000000    -6.569000000     3.756000000
C    -2.883000000    -6.172000000     1.801000000
O    -4.015000000    -5.592000000     1.198000000
C    -4.190000000    -4.215000000     1.085000000
C    -4.960000000    -3.655000000     0.037000000
H    -5.261000000    -4.356000000    -0.737000000
C    -5.281000000    -2.312000000    -0.071000000
O    -6.015000000    -1.863000000    -1.087000000
C    -6.412000000    -0.560000000    -1.128000000
C    -5.896000000     0.354000000    -2.126000000
H    -5.022000000     0.195000000    -2.752000000
C    -7.595000000    -0.244000000    -0.512000000
H    -8.060000000    -1.099000000    -0.029000000
C    -8.143000000     1.057000000    -0.596000000
H    -9.055000000     1.202000000    -0.024000000
C    -7.644000000     1.962000000    -1.464000000
H    -8.107000000     2.929000000    -1.638000000
C    -6.599000000     1.607000000    -2.327000000
O    -6.155000000     2.518000000    -3.200000000
C    -4.903000000     3.089000000    -3.213000000
C    -4.187000000     3.203000000    -4.389000000
H    -4.672000000     2.930000000    -5.323000000
C    -2.814000000     3.456000000    -4.357000000
O    -2.055000000     3.213000000    -5.494000000
C    -0.690000000     3.470000000    -5.746000000
C     0.228000000     2.446000000    -5.810000000
H    -0.089000000     1.446000000    -5.524000000
C    -0.356000000     4.757000000    -6.164000000
H    -1.078000000     5.569000000    -6.140000000
C     0.838000000     4.944000000    -6.708000000
H     1.143000000     5.898000000    -7.130000000
C     1.760000000     3.930000000    -6.736000000
H     2.777000000     4.123000000    -7.068000000
C     1.531000000     2.710000000    -6.071000000
O     2.468000000     1.722000000    -6.111000000
C     3.002000000     1.307000000    -4.900000000
C     3.829000000     0.171000000    -5.012000000
H     3.936000000    -0.425000000    -5.914000000
C     4.551000000    -0.340000000    -4.007000000
O     5.274000000    -1.467000000    -4.271000000
C     5.655000000    -2.299000000    -3.248000000
C     6.964000000    -2.225000000    -2.766000000
H     7.589000000    -1.453000000    -3.206000000
C     7.364000000    -3.101000000    -1.769000000
H     8.394000000    -2.978000000    -1.444000000
C     6.546000000    -4.119000000    -1.263000000
H     6.916000000    -4.803000000    -0.503000000
C     5.186000000    -4.127000000    -1.662000000
C     4.735000000    -3.231000000    -2.684000000
H     3.731000000    -3.346000000    -3.085000000
C     0.803000000    -0.714000000    -1.817000000
H     1.760000000    -1.071000000    -2.189000000
C     0.698000000    -0.456000000    -0.462000000
H     1.453000000    -0.620000000     0.302000000
C    -0.533000000    -0.044000000     0.082000000
H    -0.636000000     0.118000000     1.197000000
C    -1.673000000    -0.066000000    -0.724000000
H    -2.673000000     0.175000000    -0.372000000
C    -1.582000000    -0.423000000    -2.086000000
H    -2.416000000    -0.404000000    -2.783000000
C    -0.296000000    -0.734000000    -2.649000000
C    -0.308000000    -1.192000000    -4.054000000
O    -1.332000000    -1.285000000    -4.663000000
O     0.687000000    -1.703000000    -4.506000000
O    -5.231000000    -2.421000000    -5.994000000
H    -4.682000000    -2.791000000    -5.303000000
H    -4.624000000    -1.922000000    -6.540000000
O    -2.498000000    -4.536000000    -7.930000000
H    -3.255000000    -4.343000000    -8.481000000
H    -2.593000000    -3.951000000    -7.178000000
O     2.972000000    -4.303000000    -6.380000000
H     2.278000000    -4.648000000    -6.943000000
H     2.543000000    -4.150000000    -5.538000000
O     1.471000000    -4.417000000    -4.167000000
H     1.180000000    -3.513000000    -4.281000000
H     0.662000000    -4.918000000    -4.061000000
O    -2.483000000    -6.520000000    -5.499000000
H    -2.530000000    -6.955000000    -6.351000000
H    -2.820000000    -5.639000000    -5.662000000
O     2.135000000     0.712000000    -8.781000000
H     1.728000000     0.052000000    -9.343000000
H     2.000000000     0.386000000    -7.892000000
O    -2.127000000     1.073000000    -7.587000000
H    -1.773000000     1.362000000    -8.427000000
H    -1.671000000     0.251000000    -7.405000000
O    -6.257000000     0.724000000    -5.483000000
H    -5.389000000     0.363000000    -5.303000000
H    -6.221000000     0.983000000    -6.404000000
O    -1.286000000    -3.295000000    -0.445000000
H    -1.878000000    -2.992000000     0.244000000
H    -0.798000000    -2.514000000    -0.703000000
O     3.388000000    -6.598000000    -3.771000000
H     2.896000000    -5.782000000    -3.865000000
H     4.236000000    -6.415000000    -4.176000000
O    -4.679000000    -5.248000000    -3.189000000
H    -3.830000000    -4.915000000    -2.898000000
H    -4.657000000    -5.160000000    -4.142000000
O    -2.491000000    -3.504000000    -5.430000000
H    -1.998000000    -2.690000000    -5.330000000
H    -2.559000000    -3.853000000    -4.541000000
O    -3.667000000     0.175000000    -5.473000000
H    -3.309000000     0.804000000    -6.099000000
H    -2.898000000    -0.249000000    -5.093000000
O     1.708000000    -1.867000000    -6.864000000
H     1.397000000    -1.808000000    -5.961000000
H     2.625000000    -2.130000000    -6.785000000
O     0.594000000    -5.310000000    -7.794000000
H    -0.236000000    -4.947000000    -7.486000000
H     0.565000000    -6.230000000    -7.532000000
O    -3.437000000    -1.742000000    -8.110000000
H    -3.272000000    -1.955000000    -9.029000000
H    -2.735000000    -1.135000000    -7.875000000
O    -2.184000000    -4.259000000    -2.655000000
H    -1.412000000    -4.811000000    -2.777000000
H    -2.089000000    -3.906000000    -1.771000000
O    -0.544000000    -6.242000000    -3.732000000
H    -0.005000000    -6.987000000    -4.000000000
H    -1.348000000    -6.332000000    -4.243000000
O    -0.954000000    -1.280000000    -7.159000000
H    -0.025000000    -1.491000000    -7.248000000
H    -1.139000000    -1.401000000    -6.228000000
