215
-1426.16615
C    -5.024000000    -1.185000000     1.644000000
H    -5.305000000    -0.145000000     1.499000000
C    -3.935000000    -1.689000000     2.436000000
C    -3.728000000    -3.046000000     2.474000000
H    -2.817000000    -3.429000000     2.927000000
C    -3.010000000    -0.736000000     3.099000000
O    -3.615000000     0.570000000     3.364000000
H    -2.173000000    -0.496000000     2.426000000
O    -2.376000000    -1.346000000     4.263000000
C    -1.002000000    -1.010000000     4.422000000
C    -0.119000000    -2.039000000     4.292000000
H    -0.496000000    -3.031000000     4.057000000
C     1.281000000    -1.816000000     4.497000000
O     2.097000000    -2.733000000     3.901000000
C     1.769000000    -0.594000000     4.599000000
C     3.317000000    -0.237000000     4.431000000
H     3.438000000     0.590000000     5.133000000
C     3.679000000     0.191000000     3.070000000
C     3.786000000     1.509000000     2.728000000
H     3.610000000     2.278000000     3.475000000
H     3.962000000    -1.069000000     4.722000000
C     0.894000000     0.438000000     4.802000000
H     1.310000000     1.402000000     5.083000000
C    -0.515000000     0.268000000     4.772000000
C    -1.452000000     1.398000000     5.166000000
H    -0.936000000     2.116000000     5.808000000
H    -2.371000000     0.988000000     5.589000000
C    -1.845000000     2.129000000     3.873000000
C    -1.013000000     3.072000000     3.440000000
H    -0.170000000     3.468000000     4.000000000
C    -2.877000000     1.713000000     3.019000000
C    -3.159000000     2.340000000     1.803000000
H    -4.060000000     2.054000000     1.266000000
C    -2.266000000     3.328000000     1.376000000
O    -2.488000000     3.905000000     0.176000000
C    -1.574000000     3.557000000    -0.901000000
C    -2.459000000     3.266000000    -2.137000000
C    -1.764000000     3.234000000    -3.388000000
H    -0.723000000     3.537000000    -3.310000000
C    -3.773000000     2.817000000    -2.113000000
H    -4.270000000     2.770000000    -1.147000000
O    -0.588000000     4.549000000    -1.076000000
H    -1.073000000     2.638000000    -0.563000000
C    -1.205000000     3.695000000     2.175000000
C    -0.295000000     4.911000000     1.799000000
H     0.227000000     5.404000000     2.622000000
H    -0.934000000     5.690000000     1.377000000
C     0.832000000     4.539000000     0.883000000
C     2.068000000     4.223000000     1.411000000
H     2.261000000     4.251000000     2.481000000
C     0.647000000     4.525000000    -0.501000000
C     1.658000000     4.093000000    -1.347000000
H     1.391000000     3.798000000    -2.359000000
C     2.945000000     3.852000000    -0.788000000
O     3.911000000     3.144000000    -1.532000000
C     3.729000000     1.697000000    -1.607000000
C     3.746000000     1.191000000    -3.050000000
C     3.136000000     1.911000000    -4.108000000
H     2.598000000     2.842000000    -3.944000000
C     4.146000000    -0.124000000    -3.284000000
H     4.558000000    -0.707000000    -2.464000000
O     4.866000000     1.187000000    -0.780000000
H     2.756000000     1.467000000    -1.150000000
C     3.095000000     3.827000000     0.556000000
C     4.379000000     3.405000000     1.211000000
H     4.600000000     3.989000000     2.107000000
H     5.189000000     3.652000000     0.521000000
C     4.306000000     1.918000000     1.496000000
C     4.624000000     0.950000000     0.520000000
C     4.497000000    -0.412000000     0.876000000
H     4.792000000    -1.169000000     0.154000000
C     4.102000000    -0.767000000     2.161000000
O     3.879000000    -2.128000000     2.373000000
C     2.504000000    -2.578000000     2.543000000
H     1.862000000    -1.713000000     2.320000000
C     2.097000000    -3.711000000     1.556000000
C     1.365000000    -4.792000000     2.072000000
H     0.968000000    -4.780000000     3.084000000
C     2.670000000    -3.784000000     0.302000000
H     3.302000000    -3.038000000    -0.173000000
C     2.345000000    -4.876000000    -0.485000000
O     2.719000000    -4.927000000    -1.812000000
C     1.567000000    -5.918000000    -0.007000000
H     1.374000000    -6.824000000    -0.575000000
C     1.135000000    -5.950000000     1.320000000
O     0.218000000    -6.950000000     1.655000000
C    -0.829000000    -6.708000000     2.447000000
C    -1.918000000    -6.219000000     1.770000000
H    -1.896000000    -6.013000000     0.703000000
C    -0.926000000    -6.996000000     3.785000000
H    -0.112000000    -7.501000000     4.298000000
C    -2.043000000    -6.614000000     4.513000000
H    -2.218000000    -6.889000000     5.550000000
C    -3.118000000    -6.062000000     3.780000000
H    -4.078000000    -5.798000000     4.217000000
C    -3.049000000    -5.781000000     2.429000000
O    -4.111000000    -5.222000000     1.729000000
C    -4.554000000    -3.887000000     1.774000000
C    -5.518000000    -3.395000000     0.901000000
H    -6.097000000    -4.097000000     0.306000000
C    -5.800000000    -2.028000000     0.852000000
O    -6.733000000    -1.482000000    -0.065000000
C    -6.769000000    -0.142000000    -0.531000000
C    -6.060000000     0.321000000    -1.590000000
H    -5.330000000    -0.344000000    -2.043000000
C    -7.656000000     0.677000000     0.177000000
H    -8.234000000     0.349000000     1.038000000
C    -8.018000000     1.850000000    -0.417000000
H    -8.767000000     2.486000000     0.047000000
C    -7.434000000     2.256000000    -1.620000000
H    -7.748000000     3.219000000    -2.016000000
C    -6.363000000     1.512000000    -2.155000000
O    -5.667000000     1.943000000    -3.296000000
C    -4.446000000     2.438000000    -3.284000000
C    -3.764000000     2.440000000    -4.462000000
H    -4.240000000     1.973000000    -5.321000000
C    -2.452000000     2.917000000    -4.568000000
O    -1.883000000     3.111000000    -5.795000000
C    -0.644000000     3.602000000    -5.914000000
C     0.335000000     2.664000000    -6.172000000
H     0.204000000     1.599000000    -5.999000000
C    -0.384000000     4.974000000    -6.033000000
H    -1.226000000     5.660000000    -5.987000000
C     0.900000000     5.436000000    -6.144000000
H     1.105000000     6.504000000    -6.133000000
C     1.953000000     4.503000000    -6.273000000
H     2.989000000     4.831000000    -6.236000000
C     1.665000000     3.142000000    -6.279000000
O     2.656000000     2.205000000    -6.388000000
C     3.181000000     1.421000000    -5.431000000
C     3.737000000     0.174000000    -5.703000000
H     3.802000000    -0.236000000    -6.708000000
C     4.128000000    -0.639000000    -4.593000000
O     4.742000000    -1.887000000    -4.871000000
C     4.885000000    -2.826000000    -3.900000000
C     6.136000000    -3.054000000    -3.316000000
H     7.010000000    -2.644000000    -3.815000000
C     6.261000000    -3.891000000    -2.212000000
H     7.225000000    -3.982000000    -1.719000000
C     5.045000000    -4.467000000    -1.734000000
H     5.154000000    -5.096000000    -0.854000000
C     3.830000000    -4.315000000    -2.305000000
C     3.673000000    -3.390000000    -3.345000000
H     2.700000000    -3.138000000    -3.760000000
C     0.559000000    -1.017000000    -2.259000000
H     1.184000000    -1.513000000    -2.997000000
C     1.093000000    -0.746000000    -0.976000000
H     2.032000000    -1.216000000    -0.693000000
C     0.211000000    -0.167000000     0.010000000
H     0.531000000    -0.101000000     1.037000000
C    -1.056000000     0.183000000    -0.330000000
H    -1.833000000     0.500000000     0.361000000
C    -1.523000000    -0.032000000    -1.568000000
H    -2.589000000     0.135000000    -1.701000000
C    -0.769000000    -0.600000000    -2.592000000
C    -1.447000000    -0.996000000    -3.851000000
O    -2.544000000    -0.584000000    -4.118000000
O    -1.011000000    -1.863000000    -4.545000000
O    -4.740000000    -2.770000000    -8.014000000
H    -4.217000000    -2.744000000    -7.213000000
H    -5.640000000    -2.641000000    -7.717000000
O     0.407000000    -1.620000000    -7.496000000
H    -0.292000000    -1.145000000    -7.946000000
H     0.221000000    -1.494000000    -6.565000000
O    -3.227000000    -3.183000000    -5.873000000
H    -2.717000000    -2.515000000    -5.414000000
H    -3.725000000    -3.621000000    -5.182000000
O    -6.597000000     1.473000000    -6.539000000
H    -5.959000000     0.800000000    -6.304000000
H    -6.400000000     1.681000000    -7.453000000
O    -2.599000000     2.325000000    -8.692000000
H    -2.168000000     3.004000000    -8.173000000
H    -3.464000000     2.231000000    -8.294000000
O    -1.548000000    -3.936000000    -1.612000000
H    -0.892000000    -4.030000000    -0.921000000
H    -1.052000000    -4.017000000    -2.427000000
O    -2.504000000    -2.815000000    -9.734000000
H    -2.096000000    -1.993000000    -9.461000000
H    -2.905000000    -3.159000000    -8.935000000
O    -1.795000000    -6.771000000    -4.371000000
H    -1.668000000    -5.825000000    -4.303000000
H    -2.232000000    -6.894000000    -5.213000000
O    -3.888000000    -2.558000000    -2.538000000
H    -3.599000000    -1.832000000    -3.091000000
H    -3.108000000    -2.807000000    -2.043000000
O    -6.445000000    -1.501000000    -4.021000000
H    -6.947000000    -0.882000000    -3.491000000
H    -5.899000000    -1.970000000    -3.389000000
O     1.031000000    -5.309000000    -6.152000000
H     1.447000000    -4.479000000    -6.387000000
H     0.225000000    -5.328000000    -6.668000000
O    -0.628000000    -4.396000000    -4.153000000
H     0.101000000    -4.670000000    -4.709000000
H    -0.774000000    -3.479000000    -4.386000000
O    -2.132000000    -0.483000000    -8.248000000
H    -2.095000000     0.464000000    -8.383000000
H    -3.005000000    -0.640000000    -7.888000000
O    -1.429000000    -4.348000000    -7.398000000
H    -2.066000000    -3.959000000    -6.798000000
H    -1.232000000    -3.650000000    -8.022000000
O    -5.629000000    -5.709000000    -6.306000000
H    -5.363000000    -5.285000000    -5.491000000
H    -6.585000000    -5.745000000    -6.257000000
O    -3.390000000    -6.209000000    -1.606000000
H    -2.911000000    -5.702000000    -2.262000000
H    -3.093000000    -5.856000000    -0.767000000
O     2.830000000    -3.222000000    -7.500000000
H     2.233000000    -2.473000000    -7.513000000
H     3.556000000    -2.958000000    -8.066000000
O    -4.919000000    -4.520000000    -3.953000000
H    -4.704000000    -3.805000000    -3.354000000
H    -5.600000000    -5.017000000    -3.499000000
O    -4.330000000    -0.346000000    -5.905000000
H    -3.622000000    -0.332000000    -5.261000000
H    -5.094000000    -0.648000000    -5.414000000
