215
-1466.50876
C    -5.187000000    -1.245000000     0.870000000
H    -5.356000000    -0.181000000     1.015000000
C    -4.213000000    -1.919000000     1.590000000
C    -4.045000000    -3.298000000     1.343000000
H    -3.325000000    -3.906000000     1.886000000
C    -3.304000000    -1.154000000     2.517000000
O    -3.979000000     0.087000000     3.083000000
H    -2.472000000    -0.744000000     1.927000000
O    -2.772000000    -1.977000000     3.554000000
C    -1.418000000    -1.788000000     3.953000000
C    -0.604000000    -2.777000000     3.555000000
H    -1.071000000    -3.603000000     3.025000000
C     0.763000000    -2.683000000     3.797000000
O     1.484000000    -3.635000000     3.198000000
C     1.275000000    -1.557000000     4.499000000
C     2.721000000    -1.327000000     4.751000000
H     2.772000000    -0.792000000     5.702000000
C     3.450000000    -0.670000000     3.555000000
C     3.538000000     0.738000000     3.542000000
H     3.117000000     1.305000000     4.368000000
H     3.197000000    -2.269000000     5.029000000
C     0.404000000    -0.569000000     4.974000000
H     0.851000000     0.294000000     5.460000000
C    -0.964000000    -0.703000000     4.698000000
C    -1.892000000     0.350000000     5.178000000
H    -1.566000000     0.717000000     6.153000000
H    -2.879000000    -0.030000000     5.450000000
C    -2.097000000     1.349000000     4.077000000
C    -1.301000000     2.464000000     4.025000000
H    -0.635000000     2.604000000     4.872000000
C    -3.173000000     1.233000000     3.111000000
C    -3.411000000     2.211000000     2.174000000
H    -4.118000000     2.039000000     1.366000000
C    -2.483000000     3.215000000     2.061000000
O    -2.665000000     4.074000000     0.963000000
C    -1.656000000     3.980000000    -0.093000000
C    -2.393000000     4.016000000    -1.418000000
C    -1.746000000     4.413000000    -2.624000000
H    -0.744000000     4.834000000    -2.634000000
C    -3.679000000     3.399000000    -1.524000000
H    -4.093000000     2.939000000    -0.630000000
O    -0.653000000     4.986000000     0.014000000
H    -1.093000000     3.043000000     0.030000000
C    -1.460000000     3.390000000     3.027000000
C    -0.510000000     4.553000000     3.064000000
H    -0.166000000     4.771000000     4.077000000
H    -1.059000000     5.448000000     2.763000000
C     0.670000000     4.447000000     2.142000000
C     1.882000000     3.921000000     2.672000000
H     1.974000000     3.679000000     3.727000000
C     0.525000000     4.665000000     0.682000000
C     1.616000000     4.348000000    -0.158000000
H     1.484000000     4.472000000    -1.229000000
C     2.700000000     3.663000000     0.391000000
O     3.649000000     3.196000000    -0.436000000
C     3.811000000     1.766000000    -0.721000000
C     3.784000000     1.416000000    -2.240000000
C     3.163000000     2.165000000    -3.226000000
H     2.682000000     3.086000000    -2.907000000
C     4.300000000     0.205000000    -2.684000000
H     4.745000000    -0.477000000    -1.964000000
O     4.839000000     1.103000000     0.045000000
H     2.883000000     1.291000000    -0.371000000
C     2.792000000     3.433000000     1.769000000
C     4.069000000     2.844000000     2.279000000
H     4.387000000     3.235000000     3.248000000
H     4.830000000     3.225000000     1.595000000
C     4.140000000     1.296000000     2.412000000
C     4.506000000     0.547000000     1.275000000
C     4.402000000    -0.877000000     1.354000000
H     4.698000000    -1.603000000     0.601000000
C     3.905000000    -1.434000000     2.496000000
O     3.640000000    -2.797000000     2.577000000
C     2.358000000    -3.177000000     2.110000000
H     1.946000000    -2.278000000     1.626000000
C     2.396000000    -4.091000000     0.930000000
C     1.133000000    -4.609000000     0.462000000
H     0.272000000    -4.378000000     1.083000000
C     3.592000000    -4.475000000     0.311000000
H     4.554000000    -4.105000000     0.657000000
C     3.461000000    -5.235000000    -0.867000000
O     4.558000000    -5.412000000    -1.632000000
C     2.287000000    -5.837000000    -1.253000000
H     2.200000000    -6.468000000    -2.133000000
C     1.132000000    -5.551000000    -0.566000000
O     0.010000000    -6.272000000    -0.974000000
C    -1.108000000    -6.343000000    -0.245000000
C    -2.327000000    -5.816000000    -0.578000000
H    -2.404000000    -5.426000000    -1.590000000
C    -0.959000000    -6.987000000     0.969000000
H    -0.005000000    -7.432000000     1.238000000
C    -2.072000000    -7.084000000     1.819000000
H    -1.864000000    -7.551000000     2.778000000
C    -3.317000000    -6.566000000     1.484000000
H    -4.142000000    -6.584000000     2.192000000
C    -3.410000000    -5.891000000     0.247000000
O    -4.599000000    -5.209000000     0.040000000
C    -4.844000000    -3.897000000     0.392000000
C    -5.700000000    -3.182000000    -0.383000000
H    -6.324000000    -3.616000000    -1.160000000
C    -5.836000000    -1.824000000    -0.225000000
O    -6.730000000    -1.139000000    -0.951000000
C    -6.930000000     0.235000000    -0.937000000
C    -6.222000000     0.915000000    -1.923000000
H    -5.548000000     0.427000000    -2.622000000
C    -7.831000000     0.896000000    -0.107000000
H    -8.498000000     0.296000000     0.508000000
C    -8.017000000     2.277000000    -0.208000000
H    -8.849000000     2.795000000     0.261000000
C    -7.213000000     2.960000000    -1.103000000
H    -7.340000000     4.032000000    -1.235000000
C    -6.316000000     2.308000000    -1.970000000
O    -5.637000000     3.041000000    -2.914000000
C    -4.345000000     3.407000000    -2.747000000
C    -3.733000000     4.038000000    -3.865000000
H    -4.275000000     4.125000000    -4.803000000
C    -2.411000000     4.322000000    -3.810000000
O    -1.709000000     4.806000000    -4.927000000
C    -0.323000000     4.834000000    -5.069000000
C     0.353000000     3.613000000    -5.198000000
H    -0.228000000     2.696000000    -5.142000000
C     0.275000000     6.080000000    -5.204000000
H    -0.303000000     7.000000000    -5.216000000
C     1.681000000     6.054000000    -5.409000000
H     2.150000000     7.013000000    -5.611000000
C     2.420000000     4.890000000    -5.437000000
H     3.464000000     4.887000000    -5.741000000
C     1.735000000     3.676000000    -5.296000000
O     2.289000000     2.490000000    -5.449000000
C     3.060000000     1.799000000    -4.540000000
C     3.641000000     0.559000000    -4.983000000
H     3.461000000     0.299000000    -6.023000000
C     4.257000000    -0.256000000    -4.017000000
O     4.753000000    -1.523000000    -4.470000000
C     5.358000000    -2.519000000    -3.698000000
C     6.740000000    -2.551000000    -3.659000000
H     7.387000000    -1.844000000    -4.173000000
C     7.414000000    -3.532000000    -2.875000000
H     8.499000000    -3.513000000    -2.802000000
C     6.598000000    -4.439000000    -2.161000000
H     7.058000000    -5.239000000    -1.587000000
C     5.269000000    -4.487000000    -2.291000000
C     4.615000000    -3.438000000    -3.006000000
H     3.530000000    -3.385000000    -3.047000000
C     0.925000000    -0.564000000    -2.684000000
H     1.572000000    -0.795000000    -3.526000000
C     1.378000000    -0.744000000    -1.372000000
H     2.380000000    -1.094000000    -1.134000000
C     0.637000000    -0.400000000    -0.309000000
H     0.950000000    -0.745000000     0.713000000
C    -0.598000000     0.179000000    -0.482000000
H    -1.199000000     0.431000000     0.388000000
C    -1.089000000     0.377000000    -1.778000000
H    -2.108000000     0.698000000    -1.975000000
C    -0.371000000    -0.019000000    -2.906000000
C    -0.973000000     0.060000000    -4.268000000
O    -2.121000000     0.412000000    -4.352000000
O    -0.332000000    -0.130000000    -5.270000000
O    -0.370000000    -4.523000000    -7.685000000
H    -0.250000000    -4.584000000    -8.633000000
H    -0.323000000    -3.585000000    -7.499000000
O    -4.208000000    -0.350000000    -7.469000000
H    -4.491000000     0.043000000    -6.643000000
H    -3.402000000    -0.816000000    -7.248000000
O     0.931000000     1.316000000    -7.599000000
H    -0.013000000     1.179000000    -7.685000000
H     1.118000000     1.127000000    -6.680000000
O     0.486000000    -3.575000000    -3.710000000
H     0.616000000    -3.180000000    -4.573000000
H     0.190000000    -4.465000000    -3.896000000
O     3.378000000    -4.175000000    -6.381000000
H     3.800000000    -3.753000000    -7.130000000
H     2.843000000    -3.486000000    -5.988000000
O    -1.130000000     1.107000000   -10.574000000
H    -1.112000000     1.510000000    -9.706000000
H    -1.995000000     1.325000000   -10.920000000
O    -2.069000000     1.307000000    -7.112000000
H    -1.846000000     0.958000000    -6.250000000
H    -3.009000000     1.150000000    -7.199000000
O     2.915000000     2.884000000    -9.200000000
H     2.979000000     3.619000000    -8.590000000
H     2.127000000     2.414000000    -8.926000000
O    -1.069000000    -2.937000000    -1.674000000
H    -0.772000000    -2.128000000    -1.257000000
H    -0.315000000    -3.236000000    -2.183000000
O    -2.835000000    -4.769000000    -6.415000000
H    -3.286000000    -4.026000000    -6.816000000
H    -1.921000000    -4.665000000    -6.679000000
O    -3.438000000    -1.889000000    -2.893000000
H    -3.047000000    -1.137000000    -3.338000000
H    -2.774000000    -2.165000000    -2.261000000
O     1.206000000    -2.258000000    -6.129000000
H     0.937000000    -1.347000000    -6.013000000
H     1.239000000    -2.378000000    -7.079000000
O    -4.780000000     0.928000000    -4.968000000
H    -4.908000000     1.858000000    -4.782000000
H    -3.887000000     0.746000000    -4.677000000
O    -1.744000000    -1.660000000    -7.152000000
H    -1.526000000    -1.469000000    -6.240000000
H    -1.353000000    -0.940000000    -7.648000000
O    -5.949000000    -3.084000000    -3.804000000
H    -5.258000000    -2.605000000    -3.346000000
H    -5.740000000    -2.977000000    -4.732000000
O     1.017000000    -1.390000000    -9.095000000
H     0.639000000    -1.571000000    -9.955000000
H     1.199000000    -0.450000000    -9.106000000
O    -3.527000000    -5.151000000    -3.928000000
H    -3.354000000    -5.240000000    -4.865000000
H    -3.484000000    -4.209000000    -3.765000000
O    -1.974000000     4.479000000    -8.388000000
H    -1.040000000     4.690000000    -8.377000000
H    -2.061000000     3.746000000    -7.778000000
O    -7.962000000    -0.342000000    -4.389000000
H    -7.015000000    -0.400000000    -4.263000000
H    -8.140000000    -0.910000000    -5.138000000
