215
-1442.89469
C    -4.730000000    -1.300000000     1.093000000
H    -4.933000000    -0.243000000     1.242000000
C    -3.778000000    -1.909000000     1.942000000
C    -3.507000000    -3.279000000     1.864000000
H    -2.685000000    -3.708000000     2.431000000
C    -2.800000000    -1.075000000     2.847000000
O    -3.466000000     0.099000000     3.350000000
H    -1.906000000    -0.740000000     2.300000000
O    -2.311000000    -1.815000000     3.998000000
C    -0.940000000    -1.757000000     4.103000000
C    -0.055000000    -2.694000000     3.507000000
H    -0.505000000    -3.542000000     2.996000000
C     1.343000000    -2.511000000     3.637000000
O     2.157000000    -3.398000000     3.009000000
C     1.857000000    -1.318000000     4.203000000
C     3.408000000    -1.031000000     4.310000000
H     3.629000000    -0.585000000     5.282000000
C     3.876000000    -0.432000000     3.015000000
C     4.053000000     0.948000000     3.006000000
H     3.862000000     1.546000000     3.893000000
H     3.831000000    -2.037000000     4.343000000
C     0.880000000    -0.338000000     4.649000000
H     1.280000000     0.604000000     5.017000000
C    -0.474000000    -0.577000000     4.675000000
C    -1.423000000     0.450000000     5.438000000
H    -0.806000000     0.932000000     6.199000000
H    -2.234000000    -0.024000000     5.995000000
C    -1.843000000     1.484000000     4.422000000
C    -1.033000000     2.605000000     4.260000000
H    -0.217000000     2.771000000     4.959000000
C    -2.865000000     1.272000000     3.493000000
C    -3.049000000     2.244000000     2.524000000
H    -3.902000000     2.113000000     1.863000000
C    -2.282000000     3.396000000     2.409000000
O    -2.613000000     4.206000000     1.356000000
C    -1.819000000     4.045000000     0.130000000
C    -2.614000000     4.066000000    -1.179000000
C    -2.011000000     4.446000000    -2.340000000
H    -1.067000000     4.983000000    -2.301000000
C    -3.873000000     3.593000000    -1.180000000
H    -4.208000000     3.148000000    -0.246000000
O    -0.748000000     4.966000000     0.186000000
H    -1.295000000     3.078000000     0.119000000
C    -1.191000000     3.578000000     3.254000000
C    -0.275000000     4.790000000     3.095000000
H     0.205000000     4.989000000     4.055000000
H    -0.932000000     5.617000000     2.816000000
C     0.789000000     4.531000000     2.032000000
C     2.053000000     4.003000000     2.409000000
H     2.334000000     4.025000000     3.459000000
C     0.510000000     4.653000000     0.661000000
C     1.418000000     4.250000000    -0.324000000
H     1.129000000     4.453000000    -1.352000000
C     2.685000000     3.742000000     0.097000000
O     3.471000000     3.286000000    -0.905000000
C     3.719000000     1.901000000    -1.085000000
C     3.724000000     1.578000000    -2.589000000
C     2.639000000     2.058000000    -3.350000000
H     1.974000000     2.845000000    -3.002000000
C     4.676000000     0.703000000    -3.200000000
H     5.500000000     0.290000000    -2.623000000
O     4.920000000     1.468000000    -0.417000000
H     2.888000000     1.369000000    -0.599000000
C     3.069000000     3.685000000     1.443000000
C     4.467000000     3.187000000     1.852000000
H     4.612000000     3.571000000     2.864000000
H     5.324000000     3.587000000     1.307000000
C     4.482000000     1.637000000     1.848000000
C     4.716000000     0.811000000     0.727000000
C     4.531000000    -0.572000000     0.741000000
H     4.740000000    -1.160000000    -0.149000000
C     4.182000000    -1.227000000     1.891000000
O     3.919000000    -2.484000000     1.783000000
C     2.571000000    -2.943000000     1.720000000
H     2.021000000    -2.029000000     1.452000000
C     2.388000000    -4.004000000     0.666000000
C     1.531000000    -5.084000000     0.933000000
H     1.212000000    -5.104000000     1.972000000
C     2.921000000    -3.872000000    -0.644000000
H     3.521000000    -3.010000000    -0.924000000
C     2.451000000    -4.707000000    -1.647000000
O     2.776000000    -4.561000000    -2.977000000
C     1.581000000    -5.740000000    -1.294000000
H     1.239000000    -6.321000000    -2.147000000
C     1.099000000    -5.973000000    -0.033000000
O     0.263000000    -7.019000000     0.159000000
C    -0.840000000    -6.990000000     1.049000000
C    -1.941000000    -6.152000000     0.741000000
H    -1.922000000    -5.412000000    -0.056000000
C    -0.962000000    -7.948000000     2.073000000
H    -0.165000000    -8.635000000     2.349000000
C    -2.142000000    -8.059000000     2.757000000
H    -2.220000000    -8.878000000     3.468000000
C    -3.296000000    -7.260000000     2.446000000
H    -4.134000000    -7.294000000     3.137000000
C    -3.109000000    -6.255000000     1.504000000
O    -4.192000000    -5.483000000     1.046000000
C    -4.291000000    -4.108000000     0.989000000
C    -5.219000000    -3.466000000     0.154000000
H    -5.737000000    -4.105000000    -0.557000000
C    -5.373000000    -2.110000000     0.158000000
O    -6.189000000    -1.509000000    -0.741000000
C    -6.638000000    -0.185000000    -0.685000000
C    -6.062000000     0.751000000    -1.578000000
H    -5.257000000     0.477000000    -2.256000000
C    -7.730000000     0.278000000     0.142000000
H    -8.310000000    -0.491000000     0.647000000
C    -8.162000000     1.626000000     0.083000000
H    -9.081000000     2.004000000     0.523000000
C    -7.473000000     2.494000000    -0.729000000
H    -7.940000000     3.454000000    -0.934000000
C    -6.453000000     2.106000000    -1.553000000
O    -5.865000000     2.966000000    -2.459000000
C    -4.597000000     3.442000000    -2.387000000
C    -4.069000000     3.995000000    -3.572000000
H    -4.678000000     4.021000000    -4.472000000
C    -2.748000000     4.436000000    -3.557000000
O    -2.183000000     4.910000000    -4.723000000
C    -0.805000000     4.900000000    -4.951000000
C    -0.289000000     3.662000000    -5.281000000
H    -0.872000000     2.757000000    -5.428000000
C    -0.026000000     6.029000000    -4.835000000
H    -0.476000000     7.011000000    -4.717000000
C     1.389000000     5.981000000    -4.882000000
H     1.938000000     6.917000000    -4.820000000
C     1.918000000     4.683000000    -5.046000000
H     2.996000000     4.731000000    -5.176000000
C     1.091000000     3.558000000    -5.277000000
O     1.643000000     2.322000000    -5.508000000
C     2.597000000     1.778000000    -4.682000000
C     3.454000000     0.852000000    -5.300000000
H     3.316000000     0.595000000    -6.347000000
C     4.472000000     0.299000000    -4.525000000
O     5.147000000    -0.756000000    -5.026000000
C     4.999000000    -2.017000000    -4.586000000
C     6.109000000    -2.822000000    -4.685000000
H     7.048000000    -2.460000000    -5.097000000
C     6.038000000    -4.248000000    -4.390000000
H     6.893000000    -4.839000000    -4.711000000
C     4.916000000    -4.746000000    -3.746000000
H     4.767000000    -5.815000000    -3.617000000
C     3.847000000    -3.948000000    -3.494000000
C     3.845000000    -2.595000000    -3.929000000
H     3.022000000    -1.921000000    -3.708000000
C     0.380000000    -0.122000000    -2.361000000
H     1.159000000    -0.469000000    -3.034000000
C     0.645000000    -0.130000000    -1.073000000
H     1.641000000    -0.367000000    -0.709000000
C    -0.349000000     0.103000000    -0.137000000
H    -0.153000000    -0.024000000     0.896000000
C    -1.629000000     0.395000000    -0.567000000
H    -2.450000000     0.426000000     0.145000000
C    -1.890000000     0.448000000    -1.920000000
H    -2.834000000     0.689000000    -2.401000000
C    -0.914000000     0.142000000    -2.825000000
C    -1.257000000     0.151000000    -4.304000000
O    -2.329000000     0.537000000    -4.747000000
O    -0.611000000    -0.558000000    -5.041000000
O    -3.137000000    -1.587000000    -9.203000000
H    -3.194000000    -1.371000000    -8.272000000
H    -3.997000000    -1.945000000    -9.419000000
O    -5.917000000     1.628000000    -8.505000000
H    -5.224000000     1.737000000    -9.155000000
H    -5.465000000     1.305000000    -7.725000000
O    -0.799000000     0.780000000    -7.415000000
H    -0.592000000     0.154000000    -8.109000000
H    -0.612000000     0.309000000    -6.603000000
O     0.267000000    -2.848000000    -3.737000000
H     0.519000000    -3.471000000    -4.419000000
H     0.140000000    -2.022000000    -4.203000000
O    -1.219000000     2.913000000    -9.576000000
H    -0.819000000     2.546000000    -8.788000000
H    -0.527000000     2.875000000   -10.236000000
O     0.781000000    -4.145000000    -5.995000000
H     1.648000000    -4.543000000    -6.075000000
H     0.391000000    -4.244000000    -6.863000000
O    -3.105000000     2.225000000    -6.621000000
H    -2.810000000     1.891000000    -5.774000000
H    -2.470000000     1.880000000    -7.249000000
O    -1.400000000    -5.254000000    -3.054000000
H    -1.007000000    -4.885000000    -3.845000000
H    -1.297000000    -4.569000000    -2.394000000
O    -1.340000000    -2.861000000    -1.500000000
H    -0.610000000    -2.515000000    -2.013000000
H    -1.767000000    -2.084000000    -1.138000000
O    -2.383000000    -4.576000000    -6.662000000
H    -1.512000000    -4.572000000    -7.058000000
H    -2.553000000    -3.659000000    -6.448000000
O    -4.382000000    -3.820000000    -2.883000000
H    -3.513000000    -3.430000000    -2.790000000
H    -4.213000000    -4.754000000    -3.006000000
O     1.510000000    -1.498000000    -6.512000000
H     1.133000000    -2.247000000    -6.050000000
H     0.942000000    -0.764000000    -6.282000000
O    -4.834000000     0.155000000    -4.886000000
H    -5.369000000     0.940000000    -5.006000000
H    -3.956000000     0.491000000    -4.702000000
O    -2.592000000    -1.827000000    -6.276000000
H    -3.370000000    -1.377000000    -5.946000000
H    -1.862000000    -1.400000000    -5.829000000
O    -3.648000000     5.026000000    -7.140000000
H    -2.794000000     5.353000000    -7.423000000
H    -3.482000000     4.123000000    -6.871000000
O     1.574000000     4.817000000    -8.284000000
H     1.242000000     5.640000000    -8.644000000
H     1.047000000     4.669000000    -7.499000000
O     3.874000000    -1.588000000    -7.695000000
H     3.026000000    -1.425000000    -7.282000000
H     4.154000000    -0.731000000    -8.014000000
O     0.646000000    -0.634000000    -9.225000000
H     0.715000000    -1.482000000    -9.665000000
H     1.529000000    -0.462000000    -8.899000000
O    -5.689000000    -2.294000000    -5.109000000
H    -5.163000000    -2.911000000    -4.602000000
H    -5.492000000    -1.439000000    -4.727000000
