215
-1476.72106
C    -5.066000000     0.363000000     1.291000000
H    -5.095000000     1.442000000     1.419000000
C    -4.069000000    -0.454000000     1.902000000
C    -4.110000000    -1.852000000     1.747000000
H    -3.412000000    -2.461000000     2.316000000
C    -3.033000000     0.126000000     2.876000000
O    -3.518000000     1.397000000     3.272000000
H    -2.100000000     0.178000000     2.295000000
O    -2.865000000    -0.685000000     4.018000000
C    -1.545000000    -0.908000000     4.257000000
C    -1.008000000    -2.093000000     3.913000000
H    -1.596000000    -2.897000000     3.477000000
C     0.374000000    -2.300000000     3.974000000
O     1.004000000    -3.415000000     3.585000000
C     1.182000000    -1.283000000     4.592000000
C     2.662000000    -1.418000000     4.649000000
H     3.126000000    -0.769000000     5.395000000
C     3.321000000    -0.974000000     3.317000000
C     3.790000000     0.383000000     3.212000000
H     3.806000000     0.947000000     4.141000000
H     2.990000000    -2.440000000     4.848000000
C     0.607000000    -0.078000000     4.956000000
H     1.229000000     0.721000000     5.352000000
C    -0.720000000     0.109000000     4.767000000
C    -1.284000000     1.484000000     5.157000000
H    -0.600000000     1.955000000     5.867000000
H    -2.288000000     1.421000000     5.583000000
C    -1.429000000     2.376000000     3.926000000
C    -0.381000000     3.299000000     3.737000000
H     0.520000000     3.315000000     4.345000000
C    -2.523000000     2.360000000     3.160000000
C    -2.546000000     3.096000000     1.968000000
H    -3.391000000     2.974000000     1.295000000
C    -1.614000000     4.035000000     1.795000000
O    -1.621000000     4.687000000     0.557000000
C    -0.672000000     4.265000000    -0.500000000
C    -1.349000000     4.231000000    -1.956000000
C    -0.634000000     4.386000000    -3.159000000
H     0.453000000     4.400000000    -3.159000000
C    -2.746000000     3.944000000    -2.080000000
H    -3.337000000     3.959000000    -1.167000000
O     0.438000000     5.103000000    -0.545000000
H    -0.313000000     3.241000000    -0.317000000
C    -0.482000000     4.129000000     2.612000000
C     0.607000000     5.132000000     2.323000000
H     0.942000000     5.581000000     3.260000000
H     0.225000000     6.019000000     1.813000000
C     1.739000000     4.610000000     1.467000000
C     2.745000000     3.897000000     1.920000000
H     2.821000000     3.777000000     2.997000000
C     1.485000000     4.558000000     0.102000000
C     2.283000000     3.771000000    -0.722000000
H     2.175000000     3.783000000    -1.803000000
C     3.341000000     3.052000000    -0.244000000
O     4.038000000     2.289000000    -1.199000000
C     3.805000000     0.834000000    -1.169000000
C     3.755000000     0.272000000    -2.589000000
C     3.187000000     0.971000000    -3.641000000
H     2.811000000     1.965000000    -3.412000000
C     4.097000000    -1.118000000    -2.766000000
H     4.488000000    -1.652000000    -1.903000000
O     4.814000000     0.155000000    -0.394000000
H     2.830000000     0.682000000    -0.682000000
C     3.610000000     3.125000000     1.108000000
C     4.681000000     2.251000000     1.750000000
H     4.952000000     2.706000000     2.705000000
H     5.519000000     2.281000000     1.051000000
C     4.278000000     0.851000000     1.948000000
C     4.421000000    -0.123000000     0.913000000
C     4.062000000    -1.464000000     1.036000000
H     4.184000000    -2.108000000     0.169000000
C     3.509000000    -1.871000000     2.234000000
O     2.995000000    -3.171000000     2.268000000
C     1.625000000    -3.431000000     2.294000000
H     1.000000000    -2.703000000     1.756000000
C     1.315000000    -4.727000000     1.524000000
C     0.079000000    -5.428000000     1.748000000
H    -0.475000000    -5.271000000     2.670000000
C     2.081000000    -5.067000000     0.430000000
H     3.004000000    -4.517000000     0.265000000
C     1.643000000    -6.111000000    -0.398000000
O     2.308000000    -6.342000000    -1.553000000
C     0.423000000    -6.742000000    -0.208000000
H     0.033000000    -7.561000000    -0.807000000
C    -0.349000000    -6.443000000     0.870000000
O    -1.530000000    -7.046000000     1.100000000
C    -2.715000000    -6.490000000     1.478000000
C    -3.239000000    -5.439000000     0.701000000
H    -2.702000000    -5.010000000    -0.142000000
C    -3.325000000    -6.908000000     2.641000000
H    -2.829000000    -7.659000000     3.251000000
C    -4.513000000    -6.279000000     2.983000000
H    -5.001000000    -6.722000000     3.847000000
C    -5.044000000    -5.189000000     2.281000000
H    -5.946000000    -4.657000000     2.572000000
C    -4.339000000    -4.755000000     1.155000000
O    -4.887000000    -3.742000000     0.418000000
C    -4.938000000    -2.405000000     0.811000000
C    -5.764000000    -1.613000000     0.039000000
H    -6.398000000    -1.965000000    -0.771000000
C    -5.819000000    -0.278000000     0.324000000
O    -6.761000000     0.429000000    -0.382000000
C    -6.568000000     1.667000000    -0.888000000
C    -5.722000000     1.875000000    -2.022000000
H    -5.296000000     0.978000000    -2.464000000
C    -7.161000000     2.745000000    -0.233000000
H    -7.857000000     2.601000000     0.589000000
C    -6.898000000     4.026000000    -0.636000000
H    -7.348000000     4.897000000    -0.167000000
C    -6.191000000     4.241000000    -1.814000000
H    -6.140000000     5.223000000    -2.277000000
C    -5.551000000     3.201000000    -2.460000000
O    -4.754000000     3.475000000    -3.553000000
C    -3.385000000     3.801000000    -3.356000000
C    -2.623000000     4.015000000    -4.480000000
H    -3.148000000     4.008000000    -5.432000000
C    -1.269000000     4.339000000    -4.378000000
O    -0.560000000     4.570000000    -5.509000000
C     0.721000000     4.113000000    -5.786000000
C     1.035000000     2.791000000    -5.673000000
H     0.289000000     2.097000000    -5.295000000
C     1.745000000     5.043000000    -6.120000000
H     1.379000000     6.066000000    -6.080000000
C     3.041000000     4.614000000    -6.419000000
H     3.847000000     5.320000000    -6.603000000
C     3.352000000     3.228000000    -6.354000000
H     4.347000000     2.836000000    -6.552000000
C     2.294000000     2.331000000    -5.977000000
O     2.585000000     0.979000000    -6.043000000
C     2.989000000     0.382000000    -4.869000000
C     3.313000000    -0.993000000    -5.066000000
H     3.065000000    -1.465000000    -6.013000000
C     3.781000000    -1.722000000    -4.010000000
O     4.048000000    -3.028000000    -4.261000000
C     4.324000000    -3.974000000    -3.304000000
C     5.540000000    -4.123000000    -2.691000000
H     6.372000000    -3.458000000    -2.908000000
C     5.759000000    -5.146000000    -1.751000000
H     6.717000000    -5.334000000    -1.273000000
C     4.675000000    -5.915000000    -1.335000000
H     4.772000000    -6.617000000    -0.511000000
C     3.407000000    -5.678000000    -1.918000000
C     3.225000000    -4.698000000    -2.851000000
H     2.298000000    -4.663000000    -3.419000000
C     0.206000000    -1.174000000    -2.180000000
H     0.941000000    -1.722000000    -2.765000000
C     0.643000000    -0.871000000    -0.912000000
H     1.476000000    -1.392000000    -0.447000000
C    -0.101000000     0.075000000    -0.163000000
H     0.270000000     0.352000000     0.746000000
C    -1.249000000     0.664000000    -0.696000000
H    -1.851000000     1.338000000    -0.090000000
C    -1.650000000     0.355000000    -2.000000000
H    -2.539000000     0.769000000    -2.469000000
C    -0.863000000    -0.552000000    -2.803000000
C    -1.205000000    -0.864000000    -4.166000000
O    -2.249000000    -0.443000000    -4.655000000
O    -0.514000000    -1.576000000    -4.911000000
O     2.318000000    -2.061000000    -8.822000000
H     1.659000000    -1.416000000    -8.566000000
H     2.443000000    -1.916000000    -9.760000000
O    -5.229000000    -1.575000000    -7.960000000
H    -5.373000000    -0.630000000    -8.004000000
H    -4.451000000    -1.673000000    -7.411000000
O     0.228000000    -0.737000000    -7.271000000
H     0.394000000     0.197000000    -7.138000000
H     0.180000000    -1.100000000    -6.386000000
O    -1.231000000    -4.042000000    -5.099000000
H    -0.495000000    -4.603000000    -4.856000000
H    -0.932000000    -3.155000000    -4.898000000
O    -0.464000000    -0.553000000   -10.722000000
H    -0.478000000    -0.681000000    -9.774000000
H    -0.663000000     0.375000000   -10.842000000
O    -4.232000000     2.025000000    -7.040000000
H    -4.347000000     2.973000000    -7.102000000
H    -4.880000000     1.665000000    -7.646000000
O    -2.394000000     0.356000000    -8.692000000
H    -2.629000000    -0.443000000    -8.219000000
H    -1.902000000     0.874000000    -8.056000000
O    -1.746000000     1.583000000    -6.389000000
H    -1.709000000     0.876000000    -5.744000000
H    -2.679000000     1.694000000    -6.569000000
O    -6.908000000     0.657000000    -6.845000000
H    -6.576000000     0.467000000    -5.967000000
H    -7.633000000     0.043000000    -6.965000000
O    -3.970000000    -2.949000000    -4.531000000
H    -3.819000000    -2.004000000    -4.524000000
H    -3.101000000    -3.331000000    -4.652000000
O    -3.260000000    -4.231000000    -8.007000000
H    -3.409000000    -3.459000000    -7.462000000
H    -2.333000000    -4.186000000    -8.239000000
O    -6.321000000    -3.444000000    -2.719000000
H    -5.546000000    -3.204000000    -3.226000000
H    -6.059000000    -4.230000000    -2.239000000
O    -0.574000000    -3.615000000    -7.960000000
H     0.003000000    -4.235000000    -8.406000000
H    -0.117000000    -2.776000000    -8.021000000
O    -4.609000000     0.466000000    -4.615000000
H    -4.697000000     1.341000000    -4.993000000
H    -3.676000000     0.265000000    -4.693000000
O    -2.673000000    -1.739000000    -6.920000000
H    -2.629000000    -1.397000000    -6.027000000
H    -1.802000000    -2.103000000    -7.080000000
O    -6.274000000    -3.507000000    -6.303000000
H    -5.562000000    -3.024000000    -5.883000000
H    -6.538000000    -2.954000000    -7.038000000
O    -2.376000000    -6.529000000    -6.988000000
H    -2.933000000    -5.819000000    -7.305000000
H    -2.091000000    -6.241000000    -6.121000000
O    -1.270000000     3.781000000    -8.794000000
H    -0.880000000     4.653000000    -8.725000000
H    -1.113000000     3.380000000    -7.940000000
O    -6.904000000    -0.731000000    -4.385000000
H    -6.751000000    -1.463000000    -3.787000000
H    -6.131000000    -0.176000000    -4.285000000
