215
-1475.84099
C    -5.265000000     1.539000000    -0.607000000
H    -4.989000000     2.560000000    -0.355000000
C    -4.947000000     0.502000000     0.297000000
C    -5.199000000    -0.798000000    -0.018000000
H    -4.881000000    -1.647000000     0.581000000
C    -4.068000000     0.812000000     1.519000000
O    -4.163000000     2.190000000     1.933000000
H    -3.023000000     0.616000000     1.234000000
O    -4.437000000    -0.024000000     2.588000000
C    -3.442000000    -0.675000000     3.259000000
C    -3.043000000    -1.898000000     2.820000000
H    -3.467000000    -2.473000000     2.000000000
C    -1.888000000    -2.520000000     3.406000000
O    -1.402000000    -3.707000000     2.858000000
C    -1.215000000    -1.882000000     4.424000000
C     0.089000000    -2.468000000     4.909000000
H     0.229000000    -2.185000000     5.955000000
C     1.292000000    -2.145000000     4.015000000
C     2.014000000    -0.997000000     4.304000000
H     1.688000000    -0.556000000     5.243000000
H    -0.034000000    -3.547000000     5.018000000
C    -1.599000000    -0.625000000     4.865000000
H    -0.903000000    -0.088000000     5.504000000
C    -2.676000000    -0.013000000     4.285000000
C    -2.924000000     1.436000000     4.574000000
H    -2.543000000     1.574000000     5.588000000
H    -3.999000000     1.624000000     4.552000000
C    -2.233000000     2.374000000     3.583000000
C    -0.993000000     2.940000000     3.850000000
H    -0.456000000     2.549000000     4.710000000
C    -2.948000000     2.747000000     2.380000000
C    -2.316000000     3.568000000     1.476000000
H    -2.694000000     3.665000000     0.461000000
C    -1.088000000     4.141000000     1.720000000
O    -0.470000000     4.743000000     0.664000000
C     0.547000000     3.933000000    -0.015000000
C     0.473000000     4.040000000    -1.550000000
C     1.593000000     3.904000000    -2.369000000
H     2.571000000     3.672000000    -1.955000000
C    -0.733000000     4.204000000    -2.196000000
H    -1.665000000     4.310000000    -1.647000000
O     1.873000000     4.297000000     0.400000000
H     0.472000000     2.852000000     0.173000000
C    -0.435000000     3.813000000     2.905000000
C     0.932000000     4.419000000     3.208000000
H     0.939000000     4.650000000     4.275000000
H     1.150000000     5.347000000     2.675000000
C     2.078000000     3.557000000     2.761000000
C     2.660000000     2.690000000     3.653000000
H     2.212000000     2.720000000     4.643000000
C     2.543000000     3.570000000     1.440000000
C     3.621000000     2.880000000     1.024000000
H     3.908000000     2.936000000    -0.023000000
C     4.203000000     1.958000000     1.927000000
O     5.104000000     1.049000000     1.334000000
C     4.540000000    -0.151000000     0.745000000
C     5.207000000    -0.469000000    -0.544000000
C     5.768000000     0.499000000    -1.361000000
H     6.025000000     1.497000000    -1.017000000
C     4.919000000    -1.793000000    -1.077000000
H     4.433000000    -2.524000000    -0.436000000
O     4.631000000    -1.181000000     1.723000000
H     3.484000000     0.083000000     0.547000000
C     3.721000000     1.805000000     3.234000000
C     4.049000000     0.548000000     4.073000000
H     3.871000000     0.805000000     5.119000000
H     5.082000000     0.209000000     3.978000000
C     3.240000000    -0.704000000     3.712000000
C     3.581000000    -1.513000000     2.543000000
C     2.792000000    -2.552000000     2.173000000
H     2.944000000    -3.228000000     1.336000000
C     1.657000000    -2.880000000     2.896000000
O     0.824000000    -3.935000000     2.458000000
C    -0.363000000    -3.564000000     1.850000000
H    -0.247000000    -2.531000000     1.491000000
C    -0.642000000    -4.470000000     0.671000000
C    -1.908000000    -4.997000000     0.470000000
H    -2.676000000    -4.762000000     1.202000000
C     0.320000000    -4.571000000    -0.334000000
H     1.300000000    -4.102000000    -0.367000000
C     0.013000000    -5.432000000    -1.395000000
O     0.934000000    -5.753000000    -2.370000000
C    -1.215000000    -6.023000000    -1.590000000
H    -1.398000000    -6.612000000    -2.485000000
C    -2.263000000    -5.738000000    -0.640000000
O    -3.493000000    -6.363000000    -0.775000000
C    -4.637000000    -5.558000000    -0.451000000
C    -4.794000000    -4.241000000    -0.989000000
H    -4.061000000    -3.956000000    -1.741000000
C    -5.722000000    -6.094000000     0.269000000
H    -5.658000000    -7.099000000     0.677000000
C    -6.890000000    -5.288000000     0.399000000
H    -7.814000000    -5.667000000     0.831000000
C    -6.994000000    -4.061000000    -0.222000000
H    -7.836000000    -3.378000000    -0.139000000
C    -5.943000000    -3.496000000    -0.879000000
O    -6.168000000    -2.383000000    -1.590000000
C    -5.806000000    -1.081000000    -1.245000000
C    -6.217000000    -0.089000000    -2.148000000
H    -6.728000000    -0.408000000    -3.053000000
C    -5.881000000     1.256000000    -1.846000000
O    -6.091000000     2.207000000    -2.770000000
C    -5.286000000     3.357000000    -3.035000000
C    -3.925000000     3.271000000    -3.372000000
H    -3.445000000     2.302000000    -3.489000000
C    -5.970000000     4.576000000    -2.919000000
H    -7.013000000     4.660000000    -2.622000000
C    -5.183000000     5.769000000    -3.241000000
H    -5.696000000     6.725000000    -3.190000000
C    -3.841000000     5.695000000    -3.625000000
H    -3.427000000     6.646000000    -3.952000000
C    -3.216000000     4.441000000    -3.676000000
O    -2.028000000     4.300000000    -4.277000000
C    -0.829000000     4.298000000    -3.596000000
C     0.349000000     4.254000000    -4.361000000
H     0.294000000     4.316000000    -5.445000000
C     1.587000000     4.162000000    -3.763000000
O     2.657000000     3.926000000    -4.588000000
C     3.955000000     3.754000000    -4.191000000
C     4.445000000     2.473000000    -3.893000000
H     3.801000000     1.598000000    -3.928000000
C     4.871000000     4.817000000    -4.334000000
H     4.516000000     5.811000000    -4.596000000
C     6.225000000     4.701000000    -3.946000000
H     6.783000000     5.632000000    -3.885000000
C     6.726000000     3.406000000    -3.659000000
H     7.755000000     3.271000000    -3.337000000
C     5.861000000     2.331000000    -3.651000000
O     6.416000000     1.047000000    -3.622000000
C     6.131000000     0.116000000    -2.689000000
C     5.890000000    -1.145000000    -3.211000000
H     6.020000000    -1.498000000    -4.230000000
C     5.279000000    -2.045000000    -2.386000000
O     4.972000000    -3.253000000    -2.977000000
C     4.304000000    -4.333000000    -2.434000000
C     4.936000000    -5.205000000    -1.562000000
H     5.928000000    -4.942000000    -1.203000000
C     4.332000000    -6.386000000    -1.113000000
H     4.793000000    -7.130000000    -0.468000000
C     2.973000000    -6.563000000    -1.444000000
H     2.498000000    -7.465000000    -1.068000000
C     2.260000000    -5.610000000    -2.163000000
C     2.932000000    -4.545000000    -2.671000000
H     2.370000000    -3.868000000    -3.309000000
C     1.120000000    -0.864000000    -2.134000000
H     1.701000000    -1.542000000    -2.754000000
C     1.151000000    -0.957000000    -0.783000000
H     1.972000000    -1.507000000    -0.330000000
C     0.422000000    -0.118000000     0.058000000
H     0.418000000    -0.257000000     1.192000000
C    -0.531000000     0.679000000    -0.508000000
H    -1.158000000     1.296000000     0.130000000
C    -0.601000000     0.852000000    -1.823000000
H    -1.403000000     1.443000000    -2.258000000
C     0.230000000     0.116000000    -2.694000000
C     0.158000000     0.467000000    -4.186000000
O    -0.651000000     1.256000000    -4.613000000
O     0.809000000    -0.184000000    -5.022000000
O     3.207000000    -1.566000000    -6.192000000
H     2.292000000    -1.416000000    -5.954000000
H     3.475000000    -2.312000000    -5.655000000
O     2.983000000     4.402000000    -7.773000000
H     3.040000000     4.093000000    -6.868000000
H     2.758000000     3.622000000    -8.279000000
O    -2.088000000    -0.981000000    -8.714000000
H    -1.971000000    -0.949000000    -7.765000000
H    -2.254000000    -0.073000000    -8.966000000
O     2.919000000    -2.395000000    -9.061000000
H     2.188000000    -2.031000000    -9.562000000
H     2.741000000    -2.136000000    -8.157000000
O     0.672000000     1.219000000   -10.502000000
H     1.503000000     1.486000000   -10.109000000
H     0.186000000     0.816000000    -9.783000000
O    -0.990000000     4.788000000    -8.892000000
H    -0.745000000     4.004000000    -8.399000000
H    -1.563000000     4.464000000    -9.587000000
O    -1.796000000     2.688000000    -6.859000000
H    -2.684000000     3.043000000    -6.839000000
H    -1.578000000     2.536000000    -5.939000000
O     4.603000000     0.562000000    -7.132000000
H     5.436000000     0.196000000    -6.836000000
H     3.938000000    -0.005000000    -6.741000000
O    -2.067000000    -2.230000000    -1.742000000
H    -1.645000000    -3.089000000    -1.731000000
H    -1.348000000    -1.608000000    -1.632000000
O    -2.272000000    -0.697000000    -5.649000000
H    -3.113000000    -0.253000000    -5.758000000
H    -1.677000000    -0.012000000    -5.345000000
O    -3.184000000    -4.520000000    -4.984000000
H    -3.189000000    -4.140000000    -5.862000000
H    -3.521000000    -3.824000000    -4.419000000
O     2.734000000     1.690000000    -8.811000000
H     2.106000000     1.533000000    -8.106000000
H     3.457000000     1.089000000    -8.626000000
O     1.125000000    -4.976000000    -5.198000000
H     0.926000000    -4.040000000    -5.212000000
H     0.983000000    -5.237000000    -4.288000000
O    -2.873000000     1.611000000    -9.157000000
H    -2.460000000     1.940000000    -8.359000000
H    -2.566000000     2.199000000    -9.847000000
O     0.006000000    -2.394000000    -5.783000000
H    -0.847000000    -2.104000000    -6.108000000
H     0.422000000    -1.596000000    -5.458000000
O    -3.797000000    -2.187000000    -3.730000000
H    -3.208000000    -1.667000000    -4.277000000
H    -3.516000000    -2.003000000    -2.834000000
O    -4.261000000    -2.719000000    -8.081000000
H    -5.088000000    -2.328000000    -8.364000000
H    -3.590000000    -2.112000000    -8.393000000
O     0.568000000     1.297000000    -7.371000000
H     0.745000000     0.815000000    -6.563000000
H    -0.300000000     1.678000000    -7.237000000
O    -4.428000000     0.923000000    -5.637000000
H    -4.617000000     1.831000000    -5.873000000
H    -5.261000000     0.582000000    -5.312000000
