215
-1467.88327
C     4.840000000    -1.451000000    -0.877000000
H     4.377000000    -2.350000000    -1.276000000
C     4.666000000    -0.992000000     0.425000000
C     5.470000000     0.103000000     0.840000000
H     5.462000000     0.446000000     1.872000000
C     3.628000000    -1.631000000     1.354000000
O     3.765000000    -3.027000000     1.173000000
H     2.624000000    -1.218000000     1.178000000
O     3.969000000    -1.369000000     2.750000000
C     2.950000000    -1.136000000     3.673000000
C     2.852000000     0.178000000     4.124000000
H     3.459000000     0.977000000     3.707000000
C     1.733000000     0.571000000     4.851000000
O     1.345000000     1.865000000     4.731000000
C     0.754000000    -0.402000000     5.206000000
C    -0.618000000     0.024000000     5.814000000
H    -0.863000000    -0.772000000     6.520000000
C    -1.731000000     0.225000000     4.845000000
C    -2.616000000    -0.789000000     4.425000000
H    -2.606000000    -1.701000000     5.017000000
H    -0.564000000     0.933000000     6.417000000
C     1.016000000    -1.725000000     4.888000000
H     0.366000000    -2.497000000     5.292000000
C     2.097000000    -2.059000000     4.051000000
C     2.285000000    -3.508000000     3.630000000
H     1.907000000    -4.167000000     4.415000000
H     3.363000000    -3.677000000     3.603000000
C     1.742000000    -3.861000000     2.247000000
C     0.504000000    -4.424000000     2.089000000
H    -0.008000000    -4.711000000     3.004000000
C     2.541000000    -3.717000000     1.075000000
C     1.963000000    -3.955000000    -0.180000000
H     2.518000000    -3.775000000    -1.097000000
C     0.641000000    -4.328000000    -0.246000000
O     0.118000000    -4.466000000    -1.522000000
C    -1.041000000    -3.547000000    -1.867000000
C    -0.969000000    -3.064000000    -3.304000000
C    -2.081000000    -2.848000000    -4.109000000
H    -3.100000000    -3.030000000    -3.776000000
C     0.272000000    -2.581000000    -3.676000000
H     1.082000000    -2.465000000    -2.961000000
O    -2.361000000    -4.111000000    -1.575000000
H    -0.948000000    -2.672000000    -1.207000000
C    -0.127000000    -4.681000000     0.905000000
C    -1.564000000    -5.226000000     0.819000000
H    -1.713000000    -5.797000000     1.737000000
H    -1.558000000    -5.967000000     0.017000000
C    -2.614000000    -4.130000000     0.776000000
C    -3.050000000    -3.535000000     1.935000000
H    -2.665000000    -3.874000000     2.894000000
C    -2.988000000    -3.638000000    -0.468000000
C    -3.940000000    -2.662000000    -0.553000000
H    -4.118000000    -2.271000000    -1.552000000
C    -4.431000000    -2.026000000     0.574000000
O    -5.169000000    -0.825000000     0.392000000
C    -4.437000000     0.454000000     0.496000000
C    -4.861000000     1.410000000    -0.591000000
C    -5.345000000     0.907000000    -1.788000000
H    -5.543000000    -0.154000000    -1.923000000
C    -4.598000000     2.735000000    -0.354000000
H    -4.104000000     3.166000000     0.513000000
O    -4.562000000     0.975000000     1.800000000
H    -3.371000000     0.244000000     0.322000000
C    -4.025000000    -2.497000000     1.854000000
C    -4.515000000    -1.672000000     3.000000000
H    -4.771000000    -2.251000000     3.890000000
H    -5.504000000    -1.281000000     2.754000000
C    -3.580000000    -0.608000000     3.365000000
C    -3.623000000     0.615000000     2.728000000
C    -2.732000000     1.584000000     3.095000000
H    -2.718000000     2.544000000     2.587000000
C    -1.755000000     1.411000000     4.076000000
O    -0.790000000     2.381000000     4.115000000
C     0.496000000     2.103000000     3.598000000
H     0.441000000     1.239000000     2.918000000
C     1.024000000     3.212000000     2.630000000
C     2.318000000     3.610000000     2.694000000
H     2.952000000     3.294000000     3.518000000
C     0.275000000     3.682000000     1.631000000
H    -0.799000000     3.517000000     1.642000000
C     0.790000000     4.563000000     0.677000000
O    -0.050000000     4.882000000    -0.387000000
C     2.109000000     5.052000000     0.752000000
H     2.423000000     5.711000000    -0.053000000
C     2.872000000     4.534000000     1.772000000
O     4.119000000     5.073000000     1.934000000
C     5.306000000     4.412000000     1.926000000
C     5.604000000     3.241000000     1.178000000
H     4.813000000     2.794000000     0.581000000
C     6.317000000     4.955000000     2.714000000
H     6.137000000     5.808000000     3.362000000
C     7.536000000     4.321000000     2.801000000
H     8.341000000     4.683000000     3.436000000
C     7.806000000     3.188000000     2.066000000
H     8.775000000     2.697000000     2.082000000
C     6.831000000     2.679000000     1.245000000
O     7.194000000     1.661000000     0.397000000
C     6.379000000     0.706000000    -0.051000000
C     6.425000000     0.278000000    -1.392000000
H     7.097000000     0.693000000    -2.138000000
C     5.749000000    -0.840000000    -1.799000000
O     5.935000000    -1.288000000    -3.100000000
C     4.978000000    -1.996000000    -3.806000000
C     3.775000000    -1.417000000    -4.278000000
H     3.634000000    -0.360000000    -4.069000000
C     5.122000000    -3.354000000    -3.923000000
H     6.014000000    -3.796000000    -3.487000000
C     4.191000000    -4.161000000    -4.659000000
H     4.340000000    -5.222000000    -4.839000000
C     3.068000000    -3.524000000    -5.091000000
H     2.349000000    -4.161000000    -5.599000000
C     2.837000000    -2.202000000    -4.923000000
O     1.677000000    -1.655000000    -5.439000000
C     0.493000000    -2.112000000    -4.994000000
C    -0.620000000    -1.963000000    -5.834000000
H    -0.472000000    -1.614000000    -6.853000000
C    -1.936000000    -2.142000000    -5.348000000
O    -3.026000000    -1.829000000    -6.107000000
C    -4.229000000    -1.473000000    -5.553000000
C    -4.399000000    -0.224000000    -5.080000000
H    -3.529000000     0.418000000    -4.968000000
C    -5.246000000    -2.451000000    -5.480000000
H    -5.074000000    -3.454000000    -5.861000000
C    -6.474000000    -1.977000000    -5.045000000
H    -7.279000000    -2.683000000    -4.863000000
C    -6.673000000    -0.667000000    -4.661000000
H    -7.623000000    -0.401000000    -4.203000000
C    -5.624000000     0.241000000    -4.628000000
O    -5.748000000     1.499000000    -4.116000000
C    -5.456000000     1.823000000    -2.806000000
C    -5.400000000     3.200000000    -2.537000000
H    -5.614000000     3.852000000    -3.379000000
C    -4.884000000     3.634000000    -1.328000000
O    -4.674000000     5.007000000    -1.164000000
C    -3.559000000     5.673000000    -0.743000000
C    -3.596000000     7.074000000    -0.641000000
H    -4.479000000     7.704000000    -0.708000000
C    -2.380000000     7.702000000    -0.385000000
H    -2.426000000     8.777000000    -0.229000000
C    -1.210000000     7.004000000    -0.211000000
H    -0.322000000     7.602000000    -0.025000000
C    -1.182000000     5.637000000    -0.364000000
C    -2.328000000     4.962000000    -0.639000000
H    -2.194000000     3.893000000    -0.788000000
C    -0.395000000     0.899000000    -2.733000000
H    -1.113000000     0.988000000    -3.545000000
C    -0.929000000     0.574000000    -1.494000000
H    -1.988000000     0.333000000    -1.455000000
C    -0.077000000     0.408000000    -0.422000000
H    -0.432000000     0.029000000     0.559000000
C     1.245000000     0.854000000    -0.479000000
H     1.860000000     0.809000000     0.417000000
C     1.770000000     1.362000000    -1.687000000
H     2.787000000     1.747000000    -1.671000000
C     0.945000000     1.339000000    -2.766000000
C     1.389000000     2.002000000    -4.110000000
O     2.477000000     2.554000000    -4.138000000
O     0.636000000     2.094000000    -5.089000000
O     6.595000000     4.134000000    -5.813000000
H     5.800000000     4.667000000    -5.835000000
H     6.486000000     3.573000000    -5.044000000
O     6.230000000     1.377000000    -4.806000000
H     6.442000000     0.515000000    -4.448000000
H     5.668000000     1.192000000    -5.558000000
O     6.464000000     5.195000000    -2.558000000
H     5.927000000     4.413000000    -2.683000000
H     5.953000000     5.902000000    -2.952000000
O     3.934000000     6.873000000    -2.701000000
H     4.010000000     7.389000000    -3.503000000
H     3.395000000     6.121000000    -2.950000000
O     5.100000000     3.040000000    -3.043000000
H     5.555000000     2.244000000    -3.318000000
H     4.194000000     2.907000000    -3.322000000
O     3.736000000     4.010000000    -8.890000000
H     3.740000000     3.056000000    -8.811000000
H     3.728000000     4.325000000    -7.986000000
O     2.206000000     6.926000000    -7.296000000
H     1.625000000     6.289000000    -6.880000000
H     2.430000000     6.532000000    -8.139000000
O     4.569000000     5.812000000    -6.109000000
H     4.392000000     6.671000000    -6.493000000
H     3.712000000     5.386000000    -6.070000000
O    -2.420000000     0.796000000    -7.763000000
H    -3.029000000     1.338000000    -8.264000000
H    -2.541000000    -0.086000000    -8.113000000
O    -0.353000000     5.049000000    -7.763000000
H    -0.382000000     4.125000000    -7.515000000
H    -1.124000000     5.433000000    -7.344000000
O     1.940000000     4.984000000    -2.880000000
H     1.494000000     4.797000000    -2.054000000
H     2.164000000     4.123000000    -3.232000000
O     2.199000000     1.140000000    -8.487000000
H     1.854000000     0.324000000    -8.849000000
H     1.437000000     1.572000000    -8.101000000
O    -0.311000000     2.348000000    -7.452000000
H     0.023000000     2.150000000    -6.577000000
H    -1.166000000     1.919000000    -7.485000000
O     0.090000000     6.579000000    -4.222000000
H     0.727000000     6.250000000    -3.588000000
H    -0.511000000     5.847000000    -4.360000000
O    -3.854000000     5.439000000    -4.091000000
H    -2.942000000     5.586000000    -3.840000000
H    -3.827000000     5.343000000    -5.043000000
O     2.200000000     3.968000000    -6.465000000
H     2.111000000     3.532000000    -5.618000000
H     1.386000000     3.765000000    -6.926000000
O    -1.299000000     4.187000000    -4.759000000
H    -0.584000000     3.551000000    -4.767000000
H    -2.021000000     3.741000000    -5.202000000
O    -3.496000000     3.162000000    -5.996000000
H    -3.028000000     2.327000000    -5.988000000
H    -4.355000000     2.951000000    -6.361000000
O     4.532000000     1.255000000    -7.003000000
H     4.404000000     0.612000000    -7.700000000
H     3.686000000     1.694000000    -6.922000000
