215
-1450.51053
C    -4.936000000     0.404000000     0.916000000
H    -4.622000000     1.441000000     0.830000000
C    -4.246000000    -0.492000000     1.753000000
C    -4.661000000    -1.838000000     1.751000000
H    -4.086000000    -2.524000000     2.367000000
C    -3.191000000     0.030000000     2.646000000
O    -3.504000000     1.357000000     3.137000000
H    -2.243000000     0.050000000     2.088000000
O    -2.993000000    -0.834000000     3.792000000
C    -1.643000000    -1.055000000     4.173000000
C    -1.126000000    -2.291000000     3.854000000
H    -1.812000000    -3.005000000     3.406000000
C     0.208000000    -2.503000000     3.906000000
O     0.694000000    -3.644000000     3.316000000
C     1.035000000    -1.549000000     4.534000000
C     2.552000000    -1.740000000     4.658000000
H     2.903000000    -1.161000000     5.515000000
C     3.253000000    -1.357000000     3.380000000
C     3.789000000    -0.102000000     3.292000000
H     3.731000000     0.726000000     3.993000000
H     2.625000000    -2.801000000     4.903000000
C     0.485000000    -0.297000000     5.001000000
H     1.115000000     0.420000000     5.521000000
C    -0.853000000    -0.049000000     4.798000000
C    -1.472000000     1.273000000     5.183000000
H    -0.997000000     1.697000000     6.070000000
H    -2.518000000     1.140000000     5.466000000
C    -1.459000000     2.211000000     3.991000000
C    -0.371000000     3.095000000     3.811000000
H     0.492000000     2.987000000     4.464000000
C    -2.507000000     2.305000000     3.059000000
C    -2.528000000     3.298000000     2.087000000
H    -3.360000000     3.335000000     1.389000000
C    -1.393000000     4.139000000     1.939000000
O    -1.281000000     5.015000000     0.838000000
C    -0.448000000     4.573000000    -0.229000000
C    -1.117000000     4.646000000    -1.588000000
C    -0.294000000     4.689000000    -2.736000000
H     0.782000000     4.809000000    -2.631000000
C    -2.506000000     4.615000000    -1.733000000
H    -3.141000000     4.503000000    -0.858000000
O     0.856000000     5.146000000    -0.118000000
H    -0.269000000     3.511000000    -0.008000000
C    -0.351000000     4.073000000     2.867000000
C     0.977000000     4.860000000     2.749000000
H     1.408000000     4.943000000     3.749000000
H     0.727000000     5.888000000     2.480000000
C     1.968000000     4.166000000     1.799000000
C     2.889000000     3.292000000     2.243000000
H     3.077000000     3.183000000     3.308000000
C     1.858000000     4.325000000     0.414000000
C     2.762000000     3.797000000    -0.480000000
H     2.642000000     4.010000000    -1.539000000
C     3.530000000     2.779000000    -0.032000000
O     4.219000000     2.039000000    -0.939000000
C     4.075000000     0.591000000    -1.119000000
C     4.041000000     0.104000000    -2.579000000
C     3.383000000     0.893000000    -3.453000000
H     3.027000000     1.871000000    -3.141000000
C     4.450000000    -1.179000000    -2.926000000
H     4.850000000    -1.852000000    -2.171000000
O     4.937000000    -0.104000000    -0.250000000
H     3.106000000     0.365000000    -0.651000000
C     3.670000000     2.549000000     1.356000000
C     4.856000000     1.737000000     1.845000000
H     5.211000000     2.164000000     2.786000000
H     5.657000000     1.870000000     1.116000000
C     4.358000000     0.305000000     2.055000000
C     4.500000000    -0.597000000     0.996000000
C     4.037000000    -1.864000000     1.163000000
H     4.003000000    -2.624000000     0.387000000
C     3.352000000    -2.197000000     2.350000000
O     2.701000000    -3.399000000     2.262000000
C     1.344000000    -3.506000000     2.058000000
H     1.014000000    -2.575000000     1.574000000
C     0.984000000    -4.669000000     1.177000000
C    -0.367000000    -5.065000000     1.105000000
H    -1.115000000    -4.627000000     1.761000000
C     1.874000000    -5.199000000     0.263000000
H     2.898000000    -4.834000000     0.271000000
C     1.412000000    -6.098000000    -0.693000000
O     2.299000000    -6.517000000    -1.718000000
C     0.138000000    -6.630000000    -0.735000000
H    -0.150000000    -7.346000000    -1.501000000
C    -0.767000000    -6.120000000     0.217000000
O    -2.104000000    -6.379000000     0.049000000
C    -3.072000000    -6.008000000     0.980000000
C    -3.912000000    -5.006000000     0.497000000
H    -3.718000000    -4.505000000    -0.448000000
C    -3.369000000    -6.653000000     2.167000000
H    -2.615000000    -7.396000000     2.416000000
C    -4.483000000    -6.406000000     2.903000000
H    -4.681000000    -6.868000000     3.867000000
C    -5.333000000    -5.381000000     2.438000000
H    -6.274000000    -5.292000000     2.976000000
C    -5.042000000    -4.627000000     1.302000000
O    -5.939000000    -3.607000000     0.895000000
C    -5.622000000    -2.296000000     0.872000000
C    -6.321000000    -1.417000000     0.089000000
H    -7.041000000    -1.788000000    -0.636000000
C    -5.944000000    -0.083000000     0.059000000
O    -6.594000000     0.771000000    -0.830000000
C    -6.302000000     2.080000000    -0.915000000
C    -5.533000000     2.536000000    -2.027000000
H    -5.103000000     1.829000000    -2.732000000
C    -6.881000000     2.977000000    -0.040000000
H    -7.375000000     2.618000000     0.859000000
C    -6.831000000     4.283000000    -0.358000000
H    -7.385000000     5.019000000     0.220000000
C    -5.924000000     4.804000000    -1.315000000
H    -5.547000000     5.820000000    -1.408000000
C    -5.280000000     3.914000000    -2.182000000
O    -4.403000000     4.319000000    -3.214000000
C    -3.038000000     4.591000000    -3.004000000
C    -2.276000000     4.816000000    -4.146000000
H    -2.669000000     4.891000000    -5.157000000
C    -0.913000000     4.811000000    -3.937000000
O    -0.173000000     5.088000000    -5.072000000
C     0.951000000     4.430000000    -5.464000000
C     1.028000000     3.058000000    -5.464000000
H     0.200000000     2.469000000    -5.078000000
C     2.082000000     5.209000000    -5.875000000
H     1.922000000     6.281000000    -5.957000000
C     3.283000000     4.565000000    -6.206000000
H     4.186000000     5.139000000    -6.399000000
C     3.361000000     3.165000000    -6.089000000
H     4.278000000     2.610000000    -6.272000000
C     2.221000000     2.430000000    -5.813000000
O     2.359000000     1.076000000    -5.701000000
C     2.960000000     0.355000000    -4.675000000
C     3.266000000    -0.888000000    -5.051000000
H     3.000000000    -1.235000000    -6.046000000
C     3.983000000    -1.682000000    -4.164000000
O     4.005000000    -2.968000000    -4.590000000
C     4.221000000    -4.030000000    -3.696000000
C     5.514000000    -4.508000000    -3.495000000
H     6.302000000    -4.006000000    -4.052000000
C     5.672000000    -5.743000000    -2.786000000
H     6.651000000    -6.119000000    -2.499000000
C     4.557000000    -6.313000000    -2.223000000
H     4.720000000    -7.199000000    -1.614000000
C     3.325000000    -5.752000000    -2.291000000
C     3.141000000    -4.579000000    -3.017000000
H     2.130000000    -4.183000000    -3.064000000
C     0.715000000    -0.991000000    -2.163000000
H     1.259000000    -1.635000000    -2.848000000
C     0.998000000    -0.990000000    -0.775000000
H     1.837000000    -1.491000000    -0.299000000
C     0.208000000    -0.341000000     0.116000000
H     0.546000000    -0.377000000     1.171000000
C    -0.880000000     0.345000000    -0.383000000
H    -1.480000000     0.827000000     0.384000000
C    -1.148000000     0.504000000    -1.786000000
H    -1.938000000     1.139000000    -2.179000000
C    -0.348000000    -0.261000000    -2.654000000
C    -0.774000000    -0.298000000    -4.182000000
O    -1.447000000     0.572000000    -4.692000000
O    -0.359000000    -1.080000000    -4.949000000
O    -1.216000000    -3.155000000    -9.176000000
H    -2.075000000    -3.569000000    -9.266000000
H    -0.594000000    -3.881000000    -9.228000000
O     1.095000000    -4.677000000    -8.303000000
H     0.949000000    -3.949000000    -7.698000000
H     1.190000000    -5.443000000    -7.737000000
O    -4.611000000    -3.311000000    -8.252000000
H    -4.249000000    -3.766000000    -7.492000000
H    -4.422000000    -3.890000000    -8.990000000
O     0.094000000     0.150000000    -7.330000000
H     0.951000000     0.426000000    -7.004000000
H    -0.397000000    -0.085000000    -6.543000000
O     0.863000000    -2.471000000    -6.940000000
H     0.167000000    -2.154000000    -7.516000000
H     0.662000000    -2.085000000    -6.087000000
O    -1.777000000     3.999000000    -8.289000000
H    -1.773000000     3.285000000    -7.652000000
H    -1.758000000     3.561000000    -9.140000000
O    -5.159000000     2.990000000    -6.119000000
H    -4.249000000     2.705000000    -6.192000000
H    -5.275000000     3.607000000    -6.841000000
O    -4.425000000    -0.719000000    -9.102000000
H    -4.521000000    -1.570000000    -8.673000000
H    -3.497000000    -0.505000000    -9.005000000
O    -2.706000000     1.824000000    -6.636000000
H    -2.826000000     0.930000000    -6.957000000
H    -2.233000000     1.721000000    -5.811000000
O    -3.008000000    -2.400000000    -1.695000000
H    -3.773000000    -2.263000000    -2.254000000
H    -3.282000000    -2.084000000    -0.834000000
O    -5.855000000    -1.758000000    -4.350000000
H    -5.623000000    -2.461000000    -3.743000000
H    -5.351000000    -1.949000000    -5.141000000
O    -1.343000000    -6.174000000    -3.652000000
H    -1.789000000    -5.355000000    -3.436000000
H    -1.831000000    -6.845000000    -3.174000000
O    -1.441000000     2.047000000   -10.194000000
H    -0.999000000     1.774000000   -10.997000000
H    -1.572000000     1.235000000    -9.705000000
O    -3.482000000    -1.322000000    -5.777000000
H    -3.358000000    -2.271000000    -5.764000000
H    -2.656000000    -0.968000000    -5.447000000
O    -1.839000000    -3.227000000    -4.165000000
H    -1.752000000    -3.035000000    -3.231000000
H    -1.095000000    -2.781000000    -4.571000000
O    -3.813000000    -4.164000000    -5.555000000
H    -3.095000000    -3.913000000    -4.974000000
H    -3.852000000    -5.118000000    -5.490000000
O    -1.827000000    -0.531000000    -9.066000000
H    -1.204000000    -0.167000000    -8.436000000
H    -1.591000000    -1.456000000    -9.128000000
O     2.632000000    -1.048000000    -8.705000000
H     2.214000000    -1.852000000    -8.398000000
H     1.988000000    -0.652000000    -9.292000000
O    -6.570000000     0.497000000    -5.929000000
H    -5.818000000     1.052000000    -6.137000000
H    -6.215000000    -0.184000000    -5.358000000
