215
-1433.26193
C    -5.254000000     1.501000000     0.068000000
H    -4.788000000     2.482000000     0.117000000
C    -4.847000000     0.527000000     0.961000000
C    -5.284000000    -0.789000000     0.719000000
H    -4.905000000    -1.622000000     1.306000000
C    -3.672000000     0.742000000     2.012000000
O    -3.858000000     2.041000000     2.503000000
H    -2.727000000     0.550000000     1.483000000
O    -3.859000000    -0.234000000     3.031000000
C    -2.719000000    -0.832000000     3.558000000
C    -2.402000000    -2.069000000     3.068000000
H    -3.062000000    -2.564000000     2.360000000
C    -1.267000000    -2.695000000     3.479000000
O    -0.865000000    -3.854000000     2.916000000
C    -0.431000000    -2.010000000     4.354000000
C     0.974000000    -2.598000000     4.856000000
H     1.202000000    -2.214000000     5.852000000
C     2.102000000    -2.293000000     3.849000000
C     2.959000000    -1.200000000     4.077000000
H     2.902000000    -0.689000000     5.034000000
H     0.878000000    -3.685000000     4.900000000
C    -0.688000000    -0.717000000     4.812000000
H     0.037000000    -0.169000000     5.410000000
C    -1.872000000    -0.233000000     4.507000000
C    -2.302000000     1.201000000     4.953000000
H    -1.882000000     1.514000000     5.911000000
H    -3.393000000     1.222000000     5.008000000
C    -1.882000000     2.280000000     3.982000000
C    -0.576000000     2.748000000     4.034000000
H     0.128000000     2.301000000     4.732000000
C    -2.693000000     2.731000000     2.919000000
C    -2.221000000     3.688000000     2.010000000
H    -2.891000000     4.025000000     1.223000000
C    -0.952000000     4.178000000     2.111000000
O    -0.528000000     4.864000000     0.986000000
C     0.417000000     4.212000000     0.127000000
C     0.157000000     4.698000000    -1.346000000
C     1.215000000     4.921000000    -2.220000000
H     2.226000000     4.730000000    -1.870000000
C    -1.130000000     4.671000000    -1.829000000
H    -1.935000000     4.321000000    -1.188000000
O     1.789000000     4.514000000     0.570000000
H     0.281000000     3.129000000     0.262000000
C    -0.091000000     3.689000000     3.075000000
C     1.304000000     4.217000000     3.367000000
H     1.465000000     4.226000000     4.447000000
H     1.337000000     5.288000000     3.156000000
C     2.313000000     3.408000000     2.622000000
C     3.025000000     2.374000000     3.270000000
H     2.956000000     2.300000000     4.352000000
C     2.543000000     3.569000000     1.298000000
C     3.502000000     2.815000000     0.603000000
H     3.648000000     3.027000000    -0.453000000
C     4.211000000     1.815000000     1.250000000
O     5.012000000     1.005000000     0.464000000
C     4.250000000    -0.138000000    -0.055000000
C     4.502000000    -0.543000000    -1.561000000
C     4.346000000     0.456000000    -2.500000000
H     4.344000000     1.490000000    -2.164000000
C     4.639000000    -1.874000000    -1.901000000
H     4.547000000    -2.647000000    -1.143000000
O     4.634000000    -1.241000000     0.755000000
H     3.175000000     0.025000000     0.113000000
C     3.993000000     1.562000000     2.608000000
C     4.690000000     0.478000000     3.321000000
H     4.824000000     0.677000000     4.387000000
H     5.698000000     0.470000000     2.901000000
C     3.895000000    -0.868000000     3.056000000
C     3.916000000    -1.612000000     1.818000000
C     3.136000000    -2.730000000     1.658000000
H     3.150000000    -3.240000000     0.698000000
C     2.192000000    -3.091000000     2.641000000
O     1.308000000    -4.126000000     2.282000000
C     0.053000000    -3.741000000     1.783000000
H     0.084000000    -2.702000000     1.423000000
C    -0.386000000    -4.559000000     0.611000000
C    -1.753000000    -4.783000000     0.338000000
H    -2.410000000    -4.457000000     1.140000000
C     0.565000000    -4.999000000    -0.315000000
H     1.625000000    -4.902000000    -0.096000000
C     0.206000000    -5.704000000    -1.443000000
O     1.174000000    -6.198000000    -2.275000000
C    -1.153000000    -5.783000000    -1.681000000
H    -1.420000000    -6.423000000    -2.518000000
C    -2.134000000    -5.317000000    -0.853000000
O    -3.361000000    -5.752000000    -1.165000000
C    -4.525000000    -5.332000000    -0.536000000
C    -4.929000000    -4.019000000    -0.507000000
H    -4.278000000    -3.288000000    -0.979000000
C    -5.329000000    -6.249000000     0.140000000
H    -5.183000000    -7.323000000     0.221000000
C    -6.598000000    -5.902000000     0.585000000
H    -7.229000000    -6.743000000     0.863000000
C    -7.037000000    -4.578000000     0.491000000
H    -8.061000000    -4.317000000     0.746000000
C    -6.175000000    -3.613000000    -0.042000000
O    -6.713000000    -2.383000000    -0.388000000
C    -6.199000000    -1.080000000    -0.315000000
C    -6.607000000    -0.049000000    -1.187000000
H    -7.278000000    -0.248000000    -2.018000000
C    -6.095000000     1.220000000    -0.975000000
O    -6.445000000     2.229000000    -1.877000000
C    -5.729000000     3.362000000    -2.178000000
C    -4.465000000     3.278000000    -2.776000000
H    -4.099000000     2.279000000    -3.002000000
C    -6.296000000     4.647000000    -1.877000000
H    -7.322000000     4.743000000    -1.529000000
C    -5.643000000     5.859000000    -2.175000000
H    -6.079000000     6.836000000    -1.984000000
C    -4.362000000     5.725000000    -2.786000000
H    -3.828000000     6.641000000    -3.025000000
C    -3.757000000     4.419000000    -3.051000000
O    -2.554000000     4.318000000    -3.750000000
C    -1.361000000     4.669000000    -3.187000000
C    -0.299000000     4.862000000    -4.066000000
H    -0.438000000     4.963000000    -5.140000000
C     1.020000000     5.014000000    -3.636000000
O     2.076000000     5.154000000    -4.522000000
C     3.295000000     4.539000000    -4.329000000
C     3.350000000     3.135000000    -4.332000000
H     2.501000000     2.457000000    -4.284000000
C     4.496000000     5.273000000    -4.531000000
H     4.341000000     6.349000000    -4.526000000
C     5.716000000     4.617000000    -4.558000000
H     6.633000000     5.196000000    -4.637000000
C     5.728000000     3.247000000    -4.481000000
H     6.695000000     2.761000000    -4.384000000
C     4.576000000     2.510000000    -4.397000000
O     4.604000000     1.131000000    -4.733000000
C     4.496000000     0.090000000    -3.847000000
C     4.668000000    -1.240000000    -4.207000000
H     4.798000000    -1.392000000    -5.276000000
C     4.614000000    -2.176000000    -3.287000000
O     4.836000000    -3.429000000    -3.708000000
C     4.421000000    -4.577000000    -3.064000000
C     5.306000000    -5.195000000    -2.154000000
H     6.374000000    -5.011000000    -2.233000000
C     4.744000000    -6.313000000    -1.527000000
H     5.385000000    -6.917000000    -0.890000000
C     3.384000000    -6.590000000    -1.473000000
H     3.055000000    -7.322000000    -0.740000000
C     2.496000000    -5.860000000    -2.192000000
C     3.050000000    -4.919000000    -3.082000000
H     2.375000000    -4.283000000    -3.649000000
C     0.953000000    -0.704000000    -2.925000000
H     1.614000000    -1.518000000    -3.211000000
C     0.735000000    -0.588000000    -1.557000000
H     1.349000000    -1.137000000    -0.848000000
C    -0.208000000     0.263000000    -1.058000000
H    -0.225000000     0.344000000     0.066000000
C    -0.994000000     1.074000000    -1.880000000
H    -1.728000000     1.791000000    -1.520000000
C    -0.857000000     0.898000000    -3.290000000
H    -1.489000000     1.425000000    -4.000000000
C     0.067000000    -0.013000000    -3.788000000
C     0.297000000    -0.121000000    -5.268000000
O    -0.400000000     0.510000000    -6.046000000
O     1.236000000    -0.766000000    -5.701000000
O     0.871000000    -5.113000000    -7.112000000
H     0.630000000    -4.263000000    -7.481000000
H     1.813000000    -5.048000000    -6.956000000
O    -1.770000000     3.794000000    -8.890000000
H    -1.794000000     3.332000000    -8.052000000
H    -1.780000000     3.098000000    -9.547000000
O     4.759000000     0.901000000    -7.775000000
H     4.772000000     1.203000000    -6.866000000
H     4.356000000     0.034000000    -7.734000000
O     2.591000000    -3.100000000    -6.459000000
H     2.081000000    -2.441000000    -5.987000000
H     3.362000000    -2.628000000    -6.773000000
O    -4.448000000     0.476000000    -9.668000000
H    -4.170000000     0.057000000    -8.854000000
H    -3.631000000     0.705000000   -10.111000000
O     3.298000000    -0.160000000   -10.367000000
H     2.516000000    -0.121000000    -9.816000000
H     3.804000000    -0.892000000   -10.013000000
O    -3.992000000     1.112000000    -5.335000000
H    -3.917000000     0.497000000    -6.065000000
H    -4.858000000     0.939000000    -4.965000000
O    -1.759000000     2.636000000    -6.557000000
H    -2.483000000     2.441000000    -5.962000000
H    -1.076000000     2.011000000    -6.315000000
O     1.389000000     0.439000000    -8.207000000
H     1.356000000     0.247000000    -7.270000000
H     0.631000000     1.002000000    -8.363000000
O    -2.808000000    -2.222000000    -3.056000000
H    -2.507000000    -1.314000000    -3.023000000
H    -3.677000000    -2.172000000    -3.453000000
O    -2.412000000    -0.152000000    -7.923000000
H    -1.885000000     0.000000000    -7.138000000
H    -1.775000000    -0.175000000    -8.638000000
O    -1.829000000    -5.288000000    -5.929000000
H    -0.929000000    -5.367000000    -6.244000000
H    -1.742000000    -4.925000000    -5.047000000
O    -2.184000000    -3.885000000    -9.024000000
H    -1.454000000    -3.417000000    -8.618000000
H    -2.443000000    -4.536000000    -8.372000000
O     1.402000000     3.253000000    -9.308000000
H     2.270000000     2.901000000    -9.507000000
H     1.046000000     2.654000000    -8.652000000
O    -0.091000000    -1.045000000   -10.536000000
H    -0.103000000    -0.414000000   -11.256000000
H    -0.769000000    -1.681000000   -10.764000000
O    -0.670000000    -3.539000000    -4.147000000
H    -1.309000000    -3.010000000    -3.670000000
H     0.163000000    -3.087000000    -4.012000000
O    -4.803000000    -1.429000000    -7.397000000
H    -4.931000000    -2.378000000    -7.426000000
H    -3.877000000    -1.320000000    -7.179000000
O     4.611000000    -2.039000000    -7.851000000
H     5.486000000    -2.419000000    -7.769000000
H     4.291000000    -2.355000000    -8.696000000
O    -0.018000000    -2.379000000    -7.933000000
H     0.439000000    -1.906000000    -7.238000000
H     0.215000000    -1.912000000    -8.735000000
