215
-1452.40448
C    -1.961000000    -0.769000000    -4.822000000
H    -1.438000000    -1.722000000    -4.798000000
C    -1.243000000     0.400000000    -4.680000000
C    -1.943000000     1.633000000    -4.750000000
H    -1.288000000     2.484000000    -4.580000000
C     0.279000000     0.200000000    -4.237000000
O     0.903000000    -0.831000000    -4.861000000
H     0.336000000     0.173000000    -3.139000000
O     1.024000000     1.353000000    -4.608000000
C     1.928000000     1.938000000    -3.771000000
C     1.436000000     2.937000000    -2.900000000
H     0.478000000     3.367000000    -3.181000000
C     2.177000000     3.387000000    -1.810000000
O     1.671000000     4.391000000    -1.081000000
C     3.454000000     2.805000000    -1.648000000
C     4.353000000     3.290000000    -0.511000000
H     5.385000000     2.978000000    -0.681000000
C     4.007000000     2.660000000     0.893000000
C     4.695000000     1.554000000     1.326000000
H     5.554000000     1.228000000     0.746000000
H     4.367000000     4.380000000    -0.571000000
C     3.848000000     1.750000000    -2.402000000
H     4.727000000     1.225000000    -2.040000000
C     3.132000000     1.266000000    -3.488000000
C     3.614000000     0.035000000    -4.232000000
H     4.698000000    -0.055000000    -4.133000000
H     3.433000000     0.272000000    -5.283000000
C     2.954000000    -1.221000000    -3.663000000
C     3.678000000    -1.925000000    -2.664000000
H     4.636000000    -1.474000000    -2.420000000
C     1.674000000    -1.606000000    -4.070000000
C     1.261000000    -2.856000000    -3.527000000
H     0.254000000    -3.206000000    -3.739000000
C     1.907000000    -3.546000000    -2.530000000
O     1.212000000    -4.558000000    -1.888000000
C     0.654000000    -4.212000000    -0.678000000
C    -0.719000000    -4.779000000    -0.345000000
C    -0.975000000    -5.381000000     0.879000000
H    -0.265000000    -5.586000000     1.676000000
C    -1.800000000    -4.571000000    -1.253000000
H    -1.602000000    -4.136000000    -2.230000000
O     1.562000000    -4.563000000     0.349000000
H     0.593000000    -3.122000000    -0.540000000
C     3.175000000    -3.082000000    -2.101000000
C     4.025000000    -3.769000000    -1.048000000
H     5.060000000    -3.673000000    -1.383000000
H     3.780000000    -4.832000000    -1.010000000
C     3.640000000    -3.240000000     0.274000000
C     4.440000000    -2.188000000     0.797000000
H     5.379000000    -1.842000000     0.374000000
C     2.516000000    -3.688000000     0.948000000
C     2.198000000    -3.161000000     2.185000000
H     1.306000000    -3.461000000     2.730000000
C     2.901000000    -2.091000000     2.676000000
O     2.481000000    -1.639000000     3.969000000
C     1.753000000    -0.390000000     3.896000000
C     0.412000000    -0.321000000     4.716000000
C    -0.355000000    -1.472000000     4.755000000
H    -0.017000000    -2.446000000     4.409000000
C     0.037000000     0.907000000     5.279000000
H     0.605000000     1.825000000     5.152000000
O     2.744000000     0.595000000     4.263000000
H     1.432000000    -0.194000000     2.863000000
C     4.087000000    -1.699000000     2.072000000
C     4.855000000    -0.534000000     2.620000000
H     5.849000000    -0.492000000     2.170000000
H     4.989000000    -0.680000000     3.694000000
C     4.179000000     0.840000000     2.336000000
C     3.180000000     1.354000000     3.190000000
C     2.615000000     2.593000000     2.830000000
H     1.745000000     3.080000000     3.262000000
C     2.959000000     3.224000000     1.622000000
O     2.302000000     4.384000000     1.195000000
C     1.283000000     4.066000000     0.267000000
H     0.952000000     3.022000000     0.367000000
C     0.013000000     4.935000000     0.527000000
C    -0.962000000     4.936000000    -0.456000000
H    -0.833000000     4.450000000    -1.419000000
C    -0.327000000     5.398000000     1.739000000
H     0.475000000     5.390000000     2.472000000
C    -1.597000000     5.801000000     2.026000000
O    -1.938000000     6.172000000     3.313000000
C    -2.562000000     5.902000000     1.033000000
H    -3.586000000     6.218000000     1.215000000
C    -2.235000000     5.468000000    -0.235000000
O    -3.189000000     5.398000000    -1.215000000
C    -3.041000000     5.393000000    -2.558000000
C    -3.684000000     4.426000000    -3.256000000
H    -4.380000000     3.768000000    -2.742000000
C    -2.048000000     6.176000000    -3.197000000
H    -1.528000000     6.909000000    -2.585000000
C    -1.893000000     5.977000000    -4.583000000
H    -1.230000000     6.556000000    -5.220000000
C    -2.520000000     4.944000000    -5.244000000
H    -2.359000000     4.871000000    -6.317000000
C    -3.379000000     4.117000000    -4.568000000
O    -3.942000000     2.959000000    -5.188000000
C    -3.309000000     1.723000000    -4.983000000
C    -3.997000000     0.587000000    -5.236000000
H    -5.036000000     0.638000000    -5.554000000
C    -3.325000000    -0.670000000    -5.133000000
O    -4.041000000    -1.816000000    -5.538000000
C    -3.909000000    -3.065000000    -5.033000000
C    -4.007000000    -3.338000000    -3.689000000
H    -4.213000000    -2.453000000    -3.092000000
C    -3.678000000    -4.116000000    -5.931000000
H    -3.605000000    -3.906000000    -6.995000000
C    -3.592000000    -5.447000000    -5.409000000
H    -3.514000000    -6.315000000    -6.059000000
C    -3.675000000    -5.664000000    -3.989000000
H    -3.668000000    -6.679000000    -3.601000000
C    -3.929000000    -4.589000000    -3.133000000
O    -4.139000000    -4.802000000    -1.798000000
C    -3.113000000    -4.968000000    -0.976000000
C    -3.319000000    -5.557000000     0.280000000
H    -4.331000000    -5.868000000     0.529000000
C    -2.302000000    -5.772000000     1.179000000
O    -2.569000000    -6.364000000     2.420000000
C    -2.229000000    -5.633000000     3.552000000
C    -2.479000000    -4.257000000     3.844000000
H    -3.031000000    -3.602000000     3.175000000
C    -1.543000000    -6.378000000     4.514000000
H    -1.316000000    -7.428000000     4.349000000
C    -1.044000000    -5.863000000     5.704000000
H    -0.520000000    -6.433000000     6.467000000
C    -1.291000000    -4.557000000     5.949000000
H    -1.008000000    -4.155000000     6.919000000
C    -2.060000000    -3.731000000     5.110000000
O    -2.427000000    -2.429000000     5.374000000
C    -1.613000000    -1.351000000     5.411000000
C    -2.075000000    -0.099000000     5.882000000
H    -3.105000000     0.000000000     6.217000000
C    -1.253000000     1.010000000     5.831000000
O    -1.775000000     2.252000000     6.170000000
C    -1.245000000     3.444000000     5.774000000
C    -0.289000000     4.064000000     6.611000000
H     0.031000000     3.472000000     7.464000000
C     0.153000000     5.329000000     6.333000000
H     0.945000000     5.846000000     6.869000000
C    -0.397000000     5.999000000     5.199000000
H    -0.005000000     6.977000000     4.933000000
C    -1.340000000     5.430000000     4.352000000
C    -1.753000000     4.095000000     4.630000000
H    -2.532000000     3.630000000     4.031000000
C    -2.224000000    -1.185000000     0.134000000
H    -2.335000000    -2.032000000     0.807000000
C    -1.031000000    -0.593000000     0.044000000
H    -0.117000000    -0.906000000     0.541000000
C    -0.847000000     0.541000000    -0.779000000
H     0.103000000     0.970000000    -0.731000000
C    -1.914000000     1.080000000    -1.470000000
H    -1.658000000     2.008000000    -1.976000000
C    -3.100000000     0.473000000    -1.472000000
H    -3.968000000     0.897000000    -1.970000000
C    -3.339000000    -0.596000000    -0.612000000
C    -4.670000000    -1.229000000    -0.529000000
O    -5.652000000    -0.741000000    -1.104000000
O    -4.892000000    -2.031000000     0.332000000
O    -6.795000000    -4.492000000    -0.159000000
H    -6.804000000    -4.155000000     0.737000000
H    -6.053000000    -4.052000000    -0.573000000
O    -6.642000000    -7.333000000    -1.265000000
H    -7.576000000    -7.465000000    -1.104000000
H    -6.536000000    -6.382000000    -1.294000000
O    -6.329000000     1.483000000    -2.410000000
H    -6.083000000     0.569000000    -2.269000000
H    -6.707000000     1.761000000    -1.575000000
O    -8.285000000     0.055000000     3.652000000
H    -8.022000000     0.043000000     2.732000000
H    -8.940000000     0.751000000     3.704000000
O    -7.347000000    -4.093000000    -3.793000000
H    -6.397000000    -4.069000000    -3.906000000
H    -7.537000000    -3.365000000    -3.201000000
O    -7.311000000    -0.599000000     1.044000000
H    -8.035000000    -1.188000000     0.833000000
H    -6.628000000    -0.822000000     0.410000000
O    -7.790000000    -2.669000000     4.043000000
H    -8.188000000    -1.805000000     3.935000000
H    -8.340000000    -3.253000000     3.521000000
O    -6.502000000     3.939000000    -4.268000000
H    -6.465000000     3.117000000    -3.779000000
H    -6.545000000     3.670000000    -5.186000000
O    -5.341000000    -2.128000000     5.267000000
H    -6.254000000    -2.380000000     5.131000000
H    -4.837000000    -2.779000000     4.778000000
O    -5.428000000    -6.135000000     2.987000000
H    -4.550000000    -6.334000000     3.313000000
H    -5.392000000    -5.209000000     2.750000000
O    -8.878000000     0.149000000    -3.651000000
H    -8.128000000     0.620000000    -4.015000000
H    -8.492000000    -0.479000000    -3.040000000
O    -9.707000000     3.173000000    -0.657000000
H    -8.846000000     2.805000000    -0.458000000
H   -10.175000000     2.464000000    -1.098000000
O    -5.380000000     2.094000000     4.543000000
H    -4.954000000     1.274000000     4.293000000
H    -6.167000000     1.821000000     5.014000000
O    -4.412000000     0.174000000     2.480000000
H    -3.900000000    -0.453000000     1.969000000
H    -5.316000000     0.028000000     2.202000000
O    -7.716000000    -2.191000000    -2.000000000
H    -6.890000000    -1.794000000    -1.723000000
H    -8.140000000    -2.455000000    -1.183000000
O    -5.318000000    -3.453000000     2.481000000
H    -6.178000000    -3.269000000     2.861000000
H    -5.296000000    -2.935000000     1.677000000
O    -9.369000000    -2.107000000     0.142000000
H   -10.094000000    -1.688000000    -0.321000000
H    -9.723000000    -2.307000000     1.009000000
O    -3.730000000     2.635000000     0.948000000
H    -3.398000000     2.185000000     1.724000000
H    -3.153000000     2.350000000     0.240000000
O    -7.187000000     2.235000000     0.034000000
H    -6.479000000     2.590000000     0.572000000
H    -7.402000000     1.397000000     0.443000000
