215
-1437.65422
C    -5.068000000     1.176000000    -1.510000000
H    -4.621000000     2.141000000    -1.285000000
C    -4.926000000     0.101000000    -0.692000000
C    -5.496000000    -1.144000000    -1.051000000
H    -5.288000000    -1.994000000    -0.406000000
C    -4.265000000     0.285000000     0.648000000
O    -4.684000000     1.538000000     1.249000000
H    -3.167000000     0.289000000     0.573000000
O    -4.754000000    -0.681000000     1.592000000
C    -3.892000000    -1.238000000     2.483000000
C    -3.417000000    -2.545000000     2.101000000
H    -3.887000000    -3.042000000     1.256000000
C    -2.440000000    -3.126000000     2.871000000
O    -1.682000000    -4.102000000     2.284000000
C    -1.809000000    -2.445000000     3.945000000
C    -0.578000000    -2.857000000     4.705000000
H    -0.614000000    -2.351000000     5.672000000
C     0.675000000    -2.266000000     4.022000000
C     1.330000000    -1.164000000     4.563000000
H     0.861000000    -0.725000000     5.440000000
H    -0.459000000    -3.936000000     4.823000000
C    -2.348000000    -1.179000000     4.292000000
H    -1.860000000    -0.631000000     5.093000000
C    -3.408000000    -0.592000000     3.640000000
C    -3.839000000     0.790000000     4.046000000
H    -3.544000000     0.929000000     5.088000000
H    -4.928000000     0.704000000     4.028000000
C    -3.239000000     1.982000000     3.206000000
C    -2.095000000     2.639000000     3.695000000
H    -1.817000000     2.319000000     4.695000000
C    -3.681000000     2.275000000     1.898000000
C    -2.950000000     3.154000000     1.145000000
H    -3.234000000     3.268000000     0.102000000
C    -1.792000000     3.741000000     1.594000000
O    -1.152000000     4.478000000     0.665000000
C     0.248000000     4.157000000     0.258000000
C     0.449000000     4.407000000    -1.226000000
C     1.757000000     4.505000000    -1.788000000
H     2.609000000     4.412000000    -1.120000000
C    -0.656000000     4.168000000    -2.141000000
H    -1.644000000     3.879000000    -1.794000000
O     1.334000000     4.743000000     1.133000000
H     0.283000000     3.057000000     0.260000000
C    -1.330000000     3.515000000     2.916000000
C    -0.164000000     4.300000000     3.510000000
H    -0.243000000     4.489000000     4.582000000
H    -0.131000000     5.264000000     2.998000000
C     1.115000000     3.576000000     3.187000000
C     1.499000000     2.457000000     3.983000000
H     0.805000000     2.142000000     4.758000000
C     1.868000000     3.838000000     2.026000000
C     3.001000000     3.213000000     1.676000000
H     3.388000000     3.521000000     0.708000000
C     3.353000000     2.096000000     2.450000000
O     4.403000000     1.350000000     2.028000000
C     4.138000000     0.114000000     1.437000000
C     4.992000000    -0.151000000     0.201000000
C     5.224000000     0.885000000    -0.685000000
H     4.997000000     1.895000000    -0.353000000
C     5.216000000    -1.457000000    -0.163000000
H     4.938000000    -2.225000000     0.555000000
O     4.299000000    -0.907000000     2.424000000
H     3.111000000     0.160000000     1.044000000
C     2.714000000     1.807000000     3.641000000
C     3.149000000     0.580000000     4.524000000
H     2.954000000     0.770000000     5.582000000
H     4.235000000     0.668000000     4.608000000
C     2.538000000    -0.692000000     3.982000000
C     3.084000000    -1.419000000     2.952000000
C     2.447000000    -2.525000000     2.405000000
H     3.001000000    -3.101000000     1.668000000
C     1.224000000    -2.919000000     2.954000000
O     0.681000000    -4.008000000     2.371000000
C    -0.500000000    -3.648000000     1.545000000
H    -0.475000000    -2.571000000     1.324000000
C    -0.326000000    -4.381000000     0.183000000
C    -1.458000000    -4.559000000    -0.627000000
H    -2.418000000    -4.167000000    -0.302000000
C     0.950000000    -4.812000000    -0.253000000
H     1.854000000    -4.566000000     0.297000000
C     1.008000000    -5.331000000    -1.565000000
O     2.260000000    -5.671000000    -2.118000000
C    -0.141000000    -5.495000000    -2.367000000
H    -0.039000000    -5.856000000    -3.387000000
C    -1.336000000    -5.045000000    -1.911000000
O    -2.393000000    -5.212000000    -2.790000000
C    -3.792000000    -5.025000000    -2.535000000
C    -4.477000000    -3.929000000    -2.953000000
H    -4.046000000    -3.137000000    -3.560000000
C    -4.361000000    -5.991000000    -1.694000000
H    -3.703000000    -6.797000000    -1.378000000
C    -5.649000000    -5.845000000    -1.275000000
H    -6.017000000    -6.557000000    -0.540000000
C    -6.325000000    -4.666000000    -1.560000000
H    -7.341000000    -4.514000000    -1.204000000
C    -5.725000000    -3.722000000    -2.429000000
O    -6.440000000    -2.583000000    -2.669000000
C    -6.067000000    -1.349000000    -2.330000000
C    -6.217000000    -0.202000000    -3.139000000
H    -6.654000000    -0.296000000    -4.130000000
C    -5.742000000     1.023000000    -2.712000000
O    -5.951000000     2.151000000    -3.503000000
C    -5.029000000     3.145000000    -3.608000000
C    -3.736000000     2.912000000    -4.057000000
H    -3.379000000     1.897000000    -4.211000000
C    -5.425000000     4.431000000    -3.266000000
H    -6.389000000     4.617000000    -2.798000000
C    -4.523000000     5.466000000    -3.364000000
H    -4.783000000     6.493000000    -3.117000000
C    -3.207000000     5.264000000    -3.593000000
H    -2.516000000     6.100000000    -3.519000000
C    -2.841000000     3.981000000    -4.037000000
O    -1.499000000     3.780000000    -4.320000000
C    -0.501000000     4.172000000    -3.515000000
C     0.743000000     4.446000000    -4.031000000
H     0.890000000     4.415000000    -5.108000000
C     1.867000000     4.584000000    -3.177000000
O     3.084000000     4.894000000    -3.773000000
C     4.273000000     4.569000000    -3.203000000
C     4.701000000     3.213000000    -3.219000000
H     4.016000000     2.505000000    -3.679000000
C     5.187000000     5.532000000    -2.770000000
H     4.919000000     6.581000000    -2.673000000
C     6.405000000     5.165000000    -2.146000000
H     7.024000000     5.898000000    -1.634000000
C     6.761000000     3.851000000    -2.016000000
H     7.707000000     3.548000000    -1.576000000
C     5.956000000     2.858000000    -2.659000000
O     6.377000000     1.571000000    -2.738000000
C     6.039000000     0.659000000    -1.789000000
C     6.425000000    -0.646000000    -2.051000000
H     7.061000000    -0.843000000    -2.911000000
C     5.955000000    -1.731000000    -1.300000000
O     6.148000000    -3.037000000    -1.681000000
C     5.501000000    -4.197000000    -1.335000000
C     5.905000000    -5.085000000    -0.320000000
H     6.781000000    -4.938000000     0.306000000
C     5.002000000    -6.062000000     0.145000000
H     5.289000000    -6.537000000     1.080000000
C     3.776000000    -6.248000000    -0.442000000
H     3.139000000    -7.056000000    -0.091000000
C     3.429000000    -5.481000000    -1.526000000
C     4.236000000    -4.425000000    -1.900000000
H     3.956000000    -3.852000000    -2.780000000
C     1.692000000    -0.986000000    -1.576000000
H     2.570000000    -1.612000000    -1.435000000
C     0.735000000    -0.933000000    -0.513000000
H     0.819000000    -1.520000000     0.398000000
C    -0.421000000    -0.200000000    -0.573000000
H    -1.266000000    -0.351000000     0.160000000
C    -0.651000000     0.592000000    -1.722000000
H    -1.643000000     1.037000000    -1.724000000
C     0.226000000     0.571000000    -2.787000000
H     0.058000000     1.166000000    -3.681000000
C     1.389000000    -0.242000000    -2.714000000
C     2.365000000    -0.285000000    -3.835000000
O     2.203000000     0.439000000    -4.817000000
O     3.231000000    -1.081000000    -3.802000000
O    -2.586000000    -0.578000000    -5.334000000
H    -2.709000000    -1.059000000    -4.515000000
H    -1.637000000    -0.557000000    -5.458000000
O     5.793000000    -2.780000000    -4.863000000
H     6.346000000    -3.356000000    -4.335000000
H     5.246000000    -2.324000000    -4.224000000
O     2.355000000     4.040000000    -7.157000000
H     2.747000000     3.172000000    -7.068000000
H     1.420000000     3.870000000    -7.269000000
O     2.101000000    -3.431000000    -4.717000000
H     2.635000000    -2.683000000    -4.449000000
H     2.692000000    -4.182000000    -4.654000000
O     4.889000000    -2.469000000    -8.878000000
H     4.204000000    -2.449000000    -8.210000000
H     5.707000000    -2.476000000    -8.382000000
O     3.352000000    -6.178000000    -5.319000000
H     3.485000000    -6.743000000    -4.557000000
H     2.401000000    -6.140000000    -5.425000000
O     3.232000000     0.941000000    -9.956000000
H     4.076000000     1.391000000   -10.008000000
H     3.209000000     0.577000000    -9.071000000
O     7.224000000     0.921000000    -6.657000000
H     7.513000000     1.722000000    -6.220000000
H     6.466000000     0.631000000    -6.150000000
O     3.743000000     1.606000000    -6.923000000
H     4.481000000     1.533000000    -6.317000000
H     3.005000000     1.225000000    -6.449000000
O     5.249000000     0.585000000    -4.956000000
H     5.485000000     0.911000000    -4.088000000
H     4.620000000    -0.116000000    -4.786000000
O    -0.210000000     2.994000000    -7.925000000
H    -0.934000000     3.599000000    -8.087000000
H    -0.520000000     2.154000000    -8.262000000
O    -2.199000000    -1.915000000    -2.916000000
H    -1.603000000    -1.434000000    -2.342000000
H    -2.075000000    -2.833000000    -2.675000000
O     2.991000000    -1.719000000    -6.705000000
H     2.891000000    -1.083000000    -5.997000000
H     2.792000000    -2.563000000    -6.299000000
O    -0.994000000     0.307000000    -8.530000000
H    -0.983000000     0.064000000    -7.604000000
H    -0.861000000    -0.519000000    -8.996000000
O    -0.396000000    -4.070000000    -5.985000000
H     0.229000000    -3.690000000    -5.368000000
H     0.121000000    -4.690000000    -6.499000000
O    -2.271000000    -3.009000000    -7.706000000
H    -2.705000000    -2.429000000    -7.080000000
H    -1.585000000    -3.441000000    -7.197000000
O    -0.015000000    -0.852000000    -6.202000000
H     0.671000000    -0.212000000    -6.014000000
H     0.454000000    -1.676000000    -6.331000000
O     5.564000000    -5.218000000    -6.592000000
H     4.720000000    -5.379000000    -6.170000000
H     5.886000000    -4.414000000    -6.185000000
O     7.513000000    -1.968000000    -6.616000000
H     6.836000000    -2.268000000    -6.009000000
H     8.329000000    -2.314000000    -6.254000000
