215
-1449.64409
C    -4.319000000     1.210000000    -2.316000000
H    -3.776000000     2.080000000    -1.956000000
C    -4.828000000     0.346000000    -1.309000000
C    -5.443000000    -0.832000000    -1.718000000
H    -5.737000000    -1.567000000    -0.972000000
C    -4.377000000     0.537000000     0.146000000
O    -4.578000000     1.901000000     0.606000000
H    -3.299000000     0.322000000     0.123000000
O    -5.008000000    -0.340000000     1.066000000
C    -4.184000000    -0.975000000     1.996000000
C    -3.646000000    -2.225000000     1.647000000
H    -3.753000000    -2.647000000     0.651000000
C    -2.741000000    -2.787000000     2.579000000
O    -2.095000000    -3.915000000     2.036000000
C    -2.360000000    -2.167000000     3.760000000
C    -1.279000000    -2.726000000     4.720000000
H    -1.501000000    -2.378000000     5.731000000
C     0.175000000    -2.375000000     4.357000000
C     0.730000000    -1.259000000     4.848000000
H     0.244000000    -0.644000000     5.601000000
H    -1.274000000    -3.814000000     4.812000000
C    -2.818000000    -0.875000000     3.969000000
H    -2.428000000    -0.250000000     4.768000000
C    -3.750000000    -0.314000000     3.114000000
C    -4.298000000     1.049000000     3.440000000
H    -4.201000000     1.242000000     4.511000000
H    -5.355000000     1.037000000     3.169000000
C    -3.519000000     2.175000000     2.757000000
C    -2.572000000     2.814000000     3.472000000
H    -2.431000000     2.556000000     4.518000000
C    -3.635000000     2.494000000     1.389000000
C    -2.890000000     3.440000000     0.807000000
H    -3.091000000     3.729000000    -0.222000000
C    -1.855000000     4.046000000     1.530000000
O    -0.940000000     4.854000000     0.879000000
C     0.307000000     4.293000000     0.374000000
C     0.664000000     4.891000000    -1.018000000
C     2.027000000     4.926000000    -1.381000000
H     2.812000000     4.725000000    -0.656000000
C    -0.293000000     4.959000000    -1.948000000
H    -1.345000000     4.861000000    -1.694000000
O     1.365000000     4.578000000     1.384000000
H     0.260000000     3.197000000     0.292000000
C    -1.618000000     3.643000000     2.840000000
C    -0.493000000     4.221000000     3.732000000
H    -0.912000000     4.244000000     4.739000000
H    -0.313000000     5.233000000     3.362000000
C     0.765000000     3.445000000     3.518000000
C     1.120000000     2.356000000     4.359000000
H     0.568000000     2.159000000     5.275000000
C     1.575000000     3.676000000     2.400000000
C     2.764000000     2.938000000     2.199000000
H     3.382000000     3.136000000     1.326000000
C     3.102000000     1.920000000     3.080000000
O     4.117000000     1.126000000     2.666000000
C     3.763000000    -0.169000000     2.050000000
C     4.620000000    -0.435000000     0.793000000
C     4.827000000     0.483000000    -0.274000000
H     4.482000000     1.514000000    -0.269000000
C     5.210000000    -1.710000000     0.541000000
H     5.028000000    -2.479000000     1.287000000
O     3.903000000    -1.138000000     3.133000000
H     2.719000000    -0.199000000     1.707000000
C     2.289000000     1.569000000     4.089000000
C     2.640000000     0.390000000     4.990000000
H     2.335000000     0.669000000     6.001000000
H     3.728000000     0.390000000     5.094000000
C     2.033000000    -0.936000000     4.526000000
C     2.750000000    -1.702000000     3.617000000
C     2.164000000    -2.896000000     3.154000000
H     2.655000000    -3.387000000     2.318000000
C     0.835000000    -3.165000000     3.401000000
O     0.239000000    -4.121000000     2.610000000
C    -0.687000000    -3.787000000     1.575000000
H    -0.573000000    -2.777000000     1.155000000
C    -0.447000000    -4.585000000     0.307000000
C    -1.523000000    -4.863000000    -0.477000000
H    -2.519000000    -4.563000000    -0.161000000
C     0.827000000    -4.801000000    -0.130000000
H     1.715000000    -4.481000000     0.408000000
C     1.019000000    -5.361000000    -1.371000000
O     2.321000000    -5.740000000    -1.791000000
C    -0.033000000    -5.585000000    -2.209000000
H     0.003000000    -5.937000000    -3.237000000
C    -1.295000000    -5.361000000    -1.743000000
O    -2.344000000    -5.371000000    -2.688000000
C    -3.689000000    -5.040000000    -2.381000000
C    -4.217000000    -3.948000000    -3.043000000
H    -3.582000000    -3.347000000    -3.689000000
C    -4.503000000    -5.794000000    -1.517000000
H    -4.060000000    -6.672000000    -1.053000000
C    -5.834000000    -5.407000000    -1.310000000
H    -6.377000000    -5.979000000    -0.561000000
C    -6.392000000    -4.306000000    -1.999000000
H    -7.417000000    -3.959000000    -1.893000000
C    -5.615000000    -3.567000000    -2.874000000
O    -6.157000000    -2.401000000    -3.397000000
C    -5.656000000    -1.170000000    -3.052000000
C    -5.205000000    -0.249000000    -4.055000000
H    -5.399000000    -0.475000000    -5.100000000
C    -4.459000000     0.869000000    -3.670000000
O    -3.974000000     1.683000000    -4.669000000
C    -3.752000000     2.980000000    -4.483000000
C    -2.458000000     3.463000000    -4.511000000
H    -1.651000000     2.769000000    -4.727000000
C    -4.851000000     3.834000000    -4.458000000
H    -5.880000000     3.485000000    -4.424000000
C    -4.570000000     5.243000000    -4.350000000
H    -5.295000000     6.038000000    -4.194000000
C    -3.247000000     5.681000000    -4.408000000
H    -3.015000000     6.738000000    -4.503000000
C    -2.160000000     4.816000000    -4.386000000
O    -0.879000000     5.291000000    -4.343000000
C     0.054000000     5.142000000    -3.268000000
C     1.401000000     5.284000000    -3.651000000
H     1.573000000     5.496000000    -4.703000000
C     2.363000000     5.205000000    -2.678000000
O     3.651000000     5.427000000    -3.109000000
C     4.708000000     4.616000000    -2.729000000
C     4.519000000     3.240000000    -2.629000000
H     3.529000000     2.874000000    -2.890000000
C     5.938000000     5.188000000    -2.631000000
H     6.076000000     6.264000000    -2.709000000
C     7.021000000     4.375000000    -2.402000000
H     7.949000000     4.899000000    -2.189000000
C     6.872000000     3.045000000    -2.127000000
H     7.761000000     2.502000000    -1.816000000
C     5.592000000     2.426000000    -2.276000000
O     5.544000000     1.039000000    -2.508000000
C     5.427000000     0.138000000    -1.526000000
C     6.073000000    -1.144000000    -1.602000000
H     6.638000000    -1.388000000    -2.498000000
C     5.954000000    -2.033000000    -0.572000000
O     6.477000000    -3.283000000    -0.693000000
C     5.674000000    -4.399000000    -0.558000000
C     6.090000000    -5.514000000     0.162000000
H     6.956000000    -5.528000000     0.819000000
C     5.345000000    -6.667000000     0.104000000
H     5.712000000    -7.477000000     0.729000000
C     4.032000000    -6.690000000    -0.304000000
H     3.477000000    -7.625000000    -0.286000000
C     3.574000000    -5.593000000    -1.062000000
C     4.429000000    -4.486000000    -1.228000000
H     4.112000000    -3.660000000    -1.858000000
C     1.465000000    -0.523000000    -1.181000000
H     2.205000000    -1.316000000    -1.257000000
C     0.806000000    -0.444000000     0.035000000
H     1.087000000    -1.100000000     0.854000000
C    -0.243000000     0.456000000     0.136000000
H    -0.894000000     0.473000000     0.964000000
C    -0.559000000     1.341000000    -0.882000000
H    -1.407000000     2.008000000    -0.746000000
C     0.146000000     1.284000000    -2.085000000
H     0.001000000     1.992000000    -2.897000000
C     1.135000000     0.369000000    -2.240000000
C     2.097000000     0.305000000    -3.426000000
O     2.304000000     1.192000000    -4.246000000
O     2.735000000    -0.692000000    -3.634000000
O     4.732000000    -2.051000000    -4.629000000
H     4.501000000    -2.890000000    -4.230000000
H     4.109000000    -1.429000000    -4.254000000
O     4.577000000     0.790000000    -5.337000000
H     3.673000000     0.932000000    -5.058000000
H     5.105000000     1.055000000    -4.584000000
O     1.303000000    -2.789000000    -5.005000000
H     1.715000000    -2.040000000    -4.574000000
H     1.943000000    -3.496000000    -4.922000000
O     0.241000000    -0.072000000    -8.727000000
H     1.126000000    -0.036000000    -8.365000000
H    -0.313000000    -0.307000000    -7.982000000
O     5.513000000     3.496000000    -6.262000000
H     4.892000000     2.786000000    -6.099000000
H     6.373000000     3.101000000    -6.116000000
O     0.923000000     3.325000000    -8.259000000
H     0.731000000     2.757000000    -7.513000000
H     1.379000000     4.076000000    -7.878000000
O     2.683000000    -0.465000000    -7.368000000
H     3.064000000    -1.342000000    -7.424000000
H     3.227000000    -0.009000000    -6.725000000
O    -2.659000000     2.118000000    -7.556000000
H    -2.241000000     2.049000000    -8.414000000
H    -2.432000000     1.301000000    -7.112000000
O     5.733000000     6.216000000    -6.252000000
H     5.252000000     6.556000000    -5.497000000
H     5.634000000     5.266000000    -6.190000000
O    -1.560000000    -2.135000000    -2.428000000
H    -1.170000000    -1.356000000    -2.031000000
H    -1.543000000    -2.792000000    -1.732000000
O     1.666000000    -4.906000000    -7.445000000
H     1.640000000    -4.611000000    -6.534000000
H     1.966000000    -4.141000000    -7.936000000
O     3.896000000     0.129000000    -9.971000000
H     3.820000000     0.965000000   -10.432000000
H     3.408000000     0.259000000    -9.158000000
O    -2.164000000    -0.434000000    -7.273000000
H    -1.905000000    -0.745000000    -6.405000000
H    -3.031000000    -0.814000000    -7.414000000
O     3.293000000    -4.578000000    -4.591000000
H     3.623000000    -5.028000000    -5.369000000
H     3.469000000    -5.185000000    -3.871000000
O    -0.850000000    -1.158000000    -5.194000000
H    -1.140000000    -1.530000000    -4.361000000
H    -0.136000000    -1.730000000    -5.476000000
O     0.212000000     1.440000000    -5.684000000
H     1.056000000     1.521000000    -5.240000000
H    -0.090000000     0.559000000    -5.465000000
O     4.048000000    -2.904000000    -7.229000000
H     4.103000000    -2.554000000    -6.340000000
H     4.891000000    -3.336000000    -7.368000000
O     4.177000000     4.094000000    -8.681000000
H     3.407000000     4.628000000    -8.484000000
H     4.548000000     3.883000000    -7.824000000
O     7.100000000    -0.897000000    -5.234000000
H     6.435000000    -1.576000000    -5.121000000
H     6.599000000    -0.092000000    -5.368000000
