215
-1461.07419
C    -4.318000000     1.357000000    -1.645000000
H    -4.074000000     2.366000000    -1.324000000
C    -4.393000000     0.345000000    -0.612000000
C    -4.773000000    -0.931000000    -0.955000000
H    -4.759000000    -1.716000000    -0.203000000
C    -3.957000000     0.664000000     0.859000000
O    -4.266000000     2.082000000     1.137000000
H    -2.876000000     0.466000000     0.812000000
O    -4.582000000    -0.249000000     1.718000000
C    -3.795000000    -0.818000000     2.747000000
C    -3.376000000    -2.127000000     2.531000000
H    -3.799000000    -2.705000000     1.713000000
C    -2.374000000    -2.689000000     3.317000000
O    -1.951000000    -3.949000000     2.997000000
C    -1.708000000    -1.877000000     4.317000000
C    -0.610000000    -2.513000000     5.146000000
H    -0.676000000    -2.208000000     6.192000000
C     0.791000000    -2.302000000     4.485000000
C     1.604000000    -1.170000000     4.842000000
H     1.295000000    -0.396000000     5.540000000
H    -0.852000000    -3.570000000     5.279000000
C    -2.048000000    -0.505000000     4.477000000
H    -1.571000000     0.078000000     5.260000000
C    -3.159000000    -0.031000000     3.724000000
C    -3.665000000     1.402000000     3.926000000
H    -3.556000000     1.696000000     4.972000000
H    -4.738000000     1.302000000     3.752000000
C    -2.871000000     2.367000000     3.071000000
C    -1.765000000     2.994000000     3.670000000
H    -1.407000000     2.657000000     4.639000000
C    -3.176000000     2.678000000     1.750000000
C    -2.488000000     3.586000000     1.010000000
H    -2.675000000     3.830000000    -0.033000000
C    -1.356000000     4.161000000     1.595000000
O    -0.584000000     4.949000000     0.744000000
C     0.520000000     4.291000000     0.073000000
C     0.737000000     4.768000000    -1.379000000
C     2.010000000     4.836000000    -1.959000000
H     2.889000000     4.676000000    -1.340000000
C    -0.371000000     4.859000000    -2.232000000
H    -1.398000000     4.889000000    -1.878000000
O     1.740000000     4.584000000     0.848000000
H     0.294000000     3.227000000    -0.087000000
C    -0.985000000     3.869000000     2.909000000
C     0.365000000     4.344000000     3.425000000
H     0.344000000     4.340000000     4.517000000
H     0.585000000     5.394000000     3.221000000
C     1.488000000     3.471000000     2.961000000
C     1.905000000     2.465000000     3.804000000
H     1.372000000     2.328000000     4.741000000
C     2.172000000     3.687000000     1.798000000
C     3.252000000     2.907000000     1.409000000
H     3.681000000     3.079000000     0.426000000
C     3.550000000     1.833000000     2.242000000
O     4.507000000     0.969000000     1.723000000
C     4.101000000    -0.381000000     1.251000000
C     4.611000000    -0.651000000    -0.070000000
C     4.932000000     0.380000000    -0.979000000
H     4.796000000     1.445000000    -0.811000000
C     4.851000000    -1.996000000    -0.486000000
H     4.949000000    -2.803000000     0.236000000
O     4.165000000    -1.429000000     2.249000000
H     3.029000000    -0.316000000     1.012000000
C     2.933000000     1.626000000     3.414000000
C     3.421000000     0.506000000     4.357000000
H     3.217000000     0.806000000     5.387000000
H     4.511000000     0.439000000     4.365000000
C     2.723000000    -0.838000000     4.086000000
C     3.150000000    -1.757000000     3.168000000
C     2.458000000    -2.885000000     2.899000000
H     2.807000000    -3.489000000     2.065000000
C     1.220000000    -3.139000000     3.452000000
O     0.502000000    -4.193000000     2.970000000
C    -0.727000000    -3.924000000     2.190000000
H    -0.560000000    -2.880000000     1.886000000
C    -0.844000000    -4.785000000     0.933000000
C    -2.040000000    -5.516000000     0.638000000
H    -2.842000000    -5.470000000     1.370000000
C     0.241000000    -4.769000000     0.012000000
H     1.188000000    -4.293000000     0.255000000
C     0.026000000    -5.267000000    -1.232000000
O     1.046000000    -5.137000000    -2.146000000
C    -1.181000000    -5.951000000    -1.548000000
H    -1.348000000    -6.498000000    -2.472000000
C    -2.169000000    -6.082000000    -0.585000000
O    -3.348000000    -6.576000000    -1.038000000
C    -4.458000000    -5.768000000    -1.178000000
C    -4.438000000    -4.638000000    -1.945000000
H    -3.546000000    -4.447000000    -2.535000000
C    -5.590000000    -6.042000000    -0.394000000
H    -5.626000000    -6.967000000     0.176000000
C    -6.630000000    -5.159000000    -0.287000000
H    -7.438000000    -5.218000000     0.439000000
C    -6.588000000    -3.998000000    -1.115000000
H    -7.382000000    -3.267000000    -0.985000000
C    -5.473000000    -3.693000000    -1.824000000
O    -5.363000000    -2.548000000    -2.676000000
C    -5.051000000    -1.278000000    -2.279000000
C    -4.916000000    -0.270000000    -3.250000000
H    -5.191000000    -0.473000000    -4.281000000
C    -4.512000000     1.022000000    -2.955000000
O    -4.472000000     1.908000000    -3.957000000
C    -4.123000000     3.222000000    -3.697000000
C    -2.799000000     3.575000000    -4.109000000
H    -2.072000000     2.852000000    -4.471000000
C    -5.083000000     4.218000000    -3.577000000
H    -6.127000000     3.932000000    -3.479000000
C    -4.753000000     5.613000000    -3.639000000
H    -5.541000000     6.360000000    -3.598000000
C    -3.429000000     5.919000000    -3.849000000
H    -3.142000000     6.961000000    -3.962000000
C    -2.492000000     4.908000000    -4.145000000
O    -1.195000000     5.368000000    -4.415000000
C    -0.156000000     5.125000000    -3.597000000
C     1.155000000     5.346000000    -4.079000000
H     1.307000000     5.633000000    -5.116000000
C     2.233000000     5.169000000    -3.248000000
O     3.493000000     5.304000000    -3.799000000
C     4.586000000     4.464000000    -3.534000000
C     4.483000000     3.096000000    -3.380000000
H     3.542000000     2.555000000    -3.328000000
C     5.862000000     5.063000000    -3.463000000
H     5.888000000     6.149000000    -3.434000000
C     6.996000000     4.300000000    -3.188000000
H     7.978000000     4.747000000    -3.055000000
C     6.869000000     2.940000000    -3.096000000
H     7.762000000     2.323000000    -3.041000000
C     5.610000000     2.310000000    -3.165000000
O     5.662000000     0.964000000    -3.239000000
C     5.290000000     0.082000000    -2.299000000
C     5.382000000    -1.223000000    -2.698000000
H     5.740000000    -1.322000000    -3.719000000
C     5.272000000    -2.302000000    -1.789000000
O     5.426000000    -3.575000000    -2.223000000
C     4.548000000    -4.539000000    -1.813000000
C     5.001000000    -5.673000000    -1.118000000
H     6.025000000    -5.878000000    -0.818000000
C     4.070000000    -6.679000000    -0.764000000
H     4.416000000    -7.549000000    -0.210000000
C     2.712000000    -6.537000000    -1.035000000
H     1.960000000    -7.224000000    -0.653000000
C     2.320000000    -5.439000000    -1.827000000
C     3.236000000    -4.395000000    -2.120000000
H     2.863000000    -3.528000000    -2.659000000
C     1.426000000    -0.756000000    -1.495000000
H     2.247000000    -1.466000000    -1.553000000
C     0.789000000    -0.598000000    -0.314000000
H     1.131000000    -1.184000000     0.536000000
C    -0.270000000     0.271000000    -0.208000000
H    -0.761000000     0.425000000     0.701000000
C    -0.752000000     0.938000000    -1.323000000
H    -1.597000000     1.620000000    -1.280000000
C     0.029000000     0.880000000    -2.460000000
H    -0.257000000     1.468000000    -3.329000000
C     1.119000000     0.003000000    -2.609000000
C     1.917000000    -0.055000000    -3.826000000
O     1.855000000     0.849000000    -4.673000000
O     2.552000000    -1.114000000    -4.036000000
O    -0.902000000    -1.025000000    -6.716000000
H    -0.550000000    -1.138000000    -5.833000000
H    -1.191000000    -0.113000000    -6.744000000
O     3.804000000    -3.133000000    -5.129000000
H     4.334000000    -3.257000000    -4.341000000
H     3.345000000    -2.306000000    -4.981000000
O     5.919000000     0.684000000    -8.371000000
H     5.496000000    -0.171000000    -8.298000000
H     5.810000000     1.080000000    -7.507000000
O     1.265000000     4.870000000    -7.701000000
H     1.820000000     4.573000000    -6.980000000
H     1.519000000     4.320000000    -8.441000000
O     1.555000000    -2.114000000    -8.014000000
H     1.213000000    -2.118000000    -7.120000000
H     1.481000000    -3.023000000    -8.303000000
O     1.336000000    -5.427000000    -4.958000000
H     1.815000000    -5.799000000    -4.218000000
H     0.653000000    -6.069000000    -5.149000000
O     5.952000000     2.623000000    -6.245000000
H     6.281000000     2.838000000    -5.372000000
H     6.651000000     2.898000000    -6.839000000
O     2.784000000     3.108000000    -6.079000000
H     2.603000000     2.397000000    -5.464000000
H     3.736000000     3.105000000    -6.176000000
O     3.658000000     0.275000000    -6.552000000
H     2.844000000     0.191000000    -6.056000000
H     4.296000000     0.590000000    -5.912000000
O    -2.605000000    -2.894000000    -4.301000000
H    -1.725000000    -2.564000000    -4.120000000
H    -3.171000000    -2.410000000    -3.700000000
O     1.578000000     0.753000000    -8.077000000
H     1.063000000    -0.008000000    -7.809000000
H     2.467000000     0.415000000    -8.182000000
O    -2.412000000     2.313000000    -8.047000000
H    -1.970000000     2.075000000    -7.232000000
H    -2.032000000     3.157000000    -8.288000000
O     0.594000000    -2.602000000    -5.059000000
H     0.729000000    -3.544000000    -4.949000000
H     1.368000000    -2.201000000    -4.663000000
O    -3.619000000    -1.577000000    -6.602000000
H    -2.706000000    -1.326000000    -6.741000000
H    -3.638000000    -1.933000000    -5.714000000
O    -0.234000000     1.852000000    -6.116000000
H     0.286000000     1.806000000    -5.313000000
H     0.356000000     1.535000000    -6.801000000
O     3.913000000     2.814000000    -8.501000000
H     4.704000000     2.295000000    -8.653000000
H     3.498000000     2.403000000    -7.743000000
O     4.351000000    -5.419000000    -6.510000000
H     4.112000000    -4.653000000    -5.990000000
H     4.980000000    -5.087000000    -7.151000000
O     3.943000000    -1.609000000    -8.624000000
H     3.014000000    -1.693000000    -8.413000000
H     4.359000000    -1.385000000    -7.792000000
O     6.063000000    -1.672000000    -6.390000000
H     7.007000000    -1.785000000    -6.272000000
H     5.675000000    -2.426000000    -5.946000000
