215
-1442.63565
C    -4.025000000     1.372000000    -2.572000000
H    -3.570000000     2.328000000    -2.323000000
C    -4.204000000     0.395000000    -1.590000000
C    -4.630000000    -0.868000000    -1.951000000
H    -4.850000000    -1.599000000    -1.176000000
C    -3.806000000     0.709000000    -0.166000000
O    -3.988000000     2.138000000     0.094000000
H    -2.744000000     0.461000000    -0.027000000
O    -4.621000000    -0.082000000     0.821000000
C    -3.962000000    -0.674000000     1.849000000
C    -3.541000000    -2.008000000     1.817000000
H    -3.634000000    -2.746000000     1.025000000
C    -2.730000000    -2.485000000     2.872000000
O    -2.219000000    -3.733000000     2.708000000
C    -2.405000000    -1.673000000     3.957000000
C    -1.451000000    -2.171000000     5.049000000
H    -1.652000000    -1.638000000     5.981000000
C    -0.032000000    -1.897000000     4.600000000
C     0.589000000    -0.657000000     4.852000000
H     0.112000000     0.184000000     5.349000000
H    -1.574000000    -3.245000000     5.202000000
C    -2.889000000    -0.363000000     4.029000000
H    -2.564000000     0.181000000     4.913000000
C    -3.668000000     0.118000000     2.936000000
C    -4.069000000     1.523000000     3.016000000
H    -4.301000000     1.793000000     4.048000000
H    -5.031000000     1.641000000     2.513000000
C    -3.089000000     2.412000000     2.316000000
C    -1.957000000     2.936000000     2.942000000
H    -1.911000000     2.762000000     4.014000000
C    -3.112000000     2.748000000     0.944000000
C    -2.355000000     3.768000000     0.327000000
H    -2.496000000     3.971000000    -0.731000000
C    -1.406000000     4.398000000     1.042000000
O    -0.542000000     5.285000000     0.417000000
C     0.693000000     4.683000000    -0.022000000
C     0.942000000     5.026000000    -1.477000000
C     2.230000000     4.789000000    -2.040000000
H     3.035000000     4.530000000    -1.356000000
C    -0.141000000     5.247000000    -2.284000000
H    -1.125000000     5.423000000    -1.856000000
O     1.822000000     4.901000000     0.800000000
H     0.502000000     3.600000000    -0.043000000
C    -1.174000000     4.017000000     2.369000000
C    -0.049000000     4.707000000     3.168000000
H    -0.421000000     4.699000000     4.195000000
H     0.109000000     5.753000000     2.895000000
C     1.239000000     3.909000000     2.917000000
C     1.454000000     2.905000000     3.838000000
H     0.725000000     2.871000000     4.643000000
C     2.040000000     3.928000000     1.777000000
C     3.033000000     3.008000000     1.609000000
H     3.686000000     3.086000000     0.743000000
C     3.284000000     2.079000000     2.578000000
O     4.263000000     1.216000000     2.260000000
C     3.750000000    -0.083000000     1.932000000
C     4.435000000    -0.669000000     0.721000000
C     4.654000000     0.137000000    -0.411000000
H     4.400000000     1.193000000    -0.450000000
C     4.752000000    -2.021000000     0.656000000
H     4.379000000    -2.671000000     1.443000000
O     3.750000000    -1.012000000     3.039000000
H     2.695000000     0.111000000     1.685000000
C     2.491000000     1.966000000     3.670000000
C     2.635000000     0.872000000     4.769000000
H     2.361000000     1.291000000     5.739000000
H     3.687000000     0.626000000     4.930000000
C     1.914000000    -0.380000000     4.449000000
C     2.574000000    -1.353000000     3.685000000
C     1.976000000    -2.553000000     3.369000000
H     2.536000000    -3.243000000     2.743000000
C     0.688000000    -2.911000000     3.902000000
O     0.044000000    -4.041000000     3.353000000
C    -0.809000000    -3.810000000     2.160000000
H    -0.527000000    -2.849000000     1.706000000
C    -0.779000000    -4.853000000     1.035000000
C    -1.843000000    -5.107000000     0.203000000
H    -2.769000000    -4.540000000     0.260000000
C     0.483000000    -5.406000000     0.718000000
H     1.296000000    -5.210000000     1.413000000
C     0.618000000    -6.208000000    -0.427000000
O     1.809000000    -6.920000000    -0.492000000
C    -0.548000000    -6.475000000    -1.237000000
H    -0.423000000    -7.106000000    -2.113000000
C    -1.757000000    -5.884000000    -0.947000000
O    -2.828000000    -6.143000000    -1.743000000
C    -3.912000000    -5.369000000    -1.817000000
C    -3.915000000    -4.247000000    -2.602000000
H    -3.041000000    -3.904000000    -3.150000000
C    -5.062000000    -5.832000000    -1.163000000
H    -5.136000000    -6.700000000    -0.512000000
C    -6.252000000    -5.069000000    -1.247000000
H    -7.069000000    -5.310000000    -0.572000000
C    -6.346000000    -3.944000000    -2.132000000
H    -7.229000000    -3.332000000    -2.296000000
C    -5.144000000    -3.578000000    -2.767000000
O    -5.171000000    -2.494000000    -3.624000000
C    -4.821000000    -1.189000000    -3.279000000
C    -4.537000000    -0.229000000    -4.272000000
H    -4.594000000    -0.430000000    -5.339000000
C    -4.185000000     1.062000000    -3.920000000
O    -3.897000000     1.942000000    -4.899000000
C    -3.701000000     3.271000000    -4.659000000
C    -2.418000000     3.847000000    -4.643000000
H    -1.567000000     3.236000000    -4.932000000
C    -4.765000000     4.092000000    -4.253000000
H    -5.740000000     3.627000000    -4.128000000
C    -4.661000000     5.455000000    -4.054000000
H    -5.568000000     6.006000000    -3.819000000
C    -3.357000000     5.990000000    -4.017000000
H    -3.277000000     7.044000000    -3.763000000
C    -2.229000000     5.201000000    -4.336000000
O    -0.962000000     5.744000000    -4.465000000
C     0.116000000     5.426000000    -3.608000000
C     1.353000000     5.236000000    -4.175000000
H     1.535000000     5.406000000    -5.233000000
C     2.412000000     4.762000000    -3.408000000
O     3.703000000     4.683000000    -3.929000000
C     4.676000000     3.903000000    -3.364000000
C     4.528000000     2.518000000    -3.352000000
H     3.629000000     2.052000000    -3.746000000
C     5.932000000     4.435000000    -2.921000000
H     6.097000000     5.509000000    -2.911000000
C     6.878000000     3.539000000    -2.402000000
H     7.810000000     3.908000000    -1.980000000
C     6.636000000     2.185000000    -2.254000000
H     7.343000000     1.531000000    -1.751000000
C     5.448000000     1.669000000    -2.761000000
O     5.317000000     0.324000000    -2.754000000
C     5.035000000    -0.405000000    -1.637000000
C     5.429000000    -1.673000000    -1.666000000
H     5.889000000    -2.043000000    -2.578000000
C     5.280000000    -2.512000000    -0.536000000
O     5.596000000    -3.801000000    -0.750000000
C     4.879000000    -4.914000000    -0.282000000
C     5.540000000    -5.645000000     0.728000000
H     6.590000000    -5.466000000     0.947000000
C     5.007000000    -6.809000000     1.282000000
H     5.600000000    -7.433000000     1.945000000
C     3.732000000    -7.214000000     0.910000000
H     3.303000000    -8.129000000     1.310000000
C     3.038000000    -6.423000000    -0.004000000
C     3.604000000    -5.262000000    -0.609000000
H     3.134000000    -4.658000000    -1.381000000
C     1.804000000    -0.920000000    -1.336000000
H     2.541000000    -1.709000000    -1.466000000
C     1.208000000    -0.727000000    -0.107000000
H     1.393000000    -1.403000000     0.724000000
C     0.293000000     0.354000000     0.022000000
H    -0.177000000     0.597000000     0.953000000
C    -0.007000000     1.138000000    -1.036000000
H    -0.657000000     2.009000000    -1.002000000
C     0.608000000     0.794000000    -2.256000000
H     0.269000000     1.298000000    -3.157000000
C     1.542000000    -0.130000000    -2.429000000
C     2.059000000    -0.500000000    -3.789000000
O     1.687000000     0.031000000    -4.812000000
O     2.743000000    -1.512000000    -3.856000000
O     4.804000000    -2.865000000    -4.750000000
H     4.831000000    -3.801000000    -4.551000000
H     4.029000000    -2.544000000    -4.289000000
O     6.545000000     1.569000000    -6.121000000
H     5.772000000     1.006000000    -6.138000000
H     6.940000000     1.410000000    -5.264000000
O     1.028000000    -3.701000000    -3.724000000
H     1.531000000    -2.916000000    -3.508000000
H     1.685000000    -4.331000000    -4.022000000
O     0.989000000    -0.577000000    -9.210000000
H     1.556000000    -1.289000000    -8.914000000
H     1.352000000     0.206000000    -8.796000000
O     6.451000000    -5.129000000    -3.811000000
H     5.790000000    -5.647000000    -3.351000000
H     7.210000000    -5.709000000    -3.872000000
O    -1.266000000    -5.459000000    -4.496000000
H    -1.264000000    -5.065000000    -5.368000000
H    -0.508000000    -5.075000000    -4.057000000
O     4.829000000     0.082000000   -10.102000000
H     5.076000000     0.957000000    -9.801000000
H     3.881000000     0.044000000    -9.976000000
O     1.921000000     1.406000000    -7.934000000
H     1.390000000     1.433000000    -7.138000000
H     2.335000000     2.267000000    -7.976000000
O     4.330000000    -0.041000000    -5.591000000
H     3.456000000     0.009000000    -5.204000000
H     4.669000000    -0.889000000    -5.305000000
O    -2.184000000     1.898000000    -8.345000000
H    -3.026000000     1.449000000    -8.265000000
H    -1.608000000     1.437000000    -7.736000000
O    -1.415000000    -2.305000000    -0.656000000
H    -0.814000000    -3.016000000    -0.878000000
H    -1.205000000    -1.610000000    -1.279000000
O     2.837000000    -1.610000000    -7.499000000
H     2.549000000    -1.947000000    -6.650000000
H     3.331000000    -0.818000000    -7.287000000
O    -1.934000000    -0.857000000    -7.422000000
H    -1.555000000    -1.249000000    -6.636000000
H    -1.374000000    -1.162000000    -8.136000000
O     2.999000000    -5.508000000    -4.818000000
H     3.459000000    -5.987000000    -5.507000000
H     3.384000000    -5.832000000    -4.003000000
O    -0.487000000    -1.574000000    -5.238000000
H    -0.154000000    -2.443000000    -5.016000000
H     0.249000000    -0.986000000    -5.072000000
O     3.612000000    -3.365000000   -10.179000000
H     3.852000000    -4.257000000    -9.928000000
H     3.184000000    -3.005000000    -9.403000000
O    -0.171000000     1.313000000    -5.979000000
H     0.481000000     0.927000000    -5.395000000
H    -0.984000000     0.855000000    -5.767000000
O     5.927000000    -4.203000000    -7.754000000
H     6.321000000    -4.182000000    -6.881000000
H     5.463000000    -3.369000000    -7.827000000
O     7.019000000    -1.617000000    -5.832000000
H     6.210000000    -1.895000000    -5.404000000
H     7.412000000    -0.994000000    -5.220000000
