215
-1458.04875
C    -5.153000000     0.467000000    -1.621000000
H    -4.956000000     1.435000000    -1.168000000
C    -4.977000000    -0.614000000    -0.780000000
C    -5.115000000    -1.892000000    -1.287000000
H    -4.840000000    -2.790000000    -0.739000000
C    -4.355000000    -0.377000000     0.620000000
O    -4.741000000     0.873000000     1.172000000
H    -3.275000000    -0.473000000     0.434000000
O    -4.641000000    -1.428000000     1.580000000
C    -3.591000000    -1.814000000     2.363000000
C    -2.927000000    -3.039000000     2.119000000
H    -3.187000000    -3.714000000     1.307000000
C    -1.855000000    -3.449000000     2.878000000
O    -1.096000000    -4.362000000     2.326000000
C    -1.470000000    -2.674000000     4.024000000
C    -0.227000000    -3.056000000     4.884000000
H    -0.410000000    -2.879000000     5.946000000
C     1.042000000    -2.410000000     4.283000000
C     1.406000000    -1.161000000     4.772000000
H     0.751000000    -0.744000000     5.533000000
H    -0.151000000    -4.143000000     4.823000000
C    -2.230000000    -1.486000000     4.320000000
H    -2.111000000    -1.060000000     5.313000000
C    -3.210000000    -1.080000000     3.480000000
C    -3.927000000     0.201000000     3.835000000
H    -3.745000000     0.304000000     4.906000000
H    -4.995000000     0.141000000     3.615000000
C    -3.361000000     1.397000000     3.069000000
C    -2.451000000     2.240000000     3.689000000
H    -2.037000000     2.012000000     4.668000000
C    -3.857000000     1.719000000     1.812000000
C    -3.397000000     2.840000000     1.112000000
H    -3.661000000     3.084000000     0.086000000
C    -2.422000000     3.597000000     1.703000000
O    -1.730000000     4.459000000     0.919000000
C    -0.488000000     4.039000000     0.355000000
C    -0.333000000     4.286000000    -1.144000000
C     0.894000000     4.153000000    -1.748000000
H     1.783000000     3.989000000    -1.144000000
C    -1.443000000     4.607000000    -1.915000000
H    -2.425000000     4.680000000    -1.453000000
O     0.623000000     4.580000000     1.051000000
H    -0.447000000     2.969000000     0.609000000
C    -1.958000000     3.346000000     3.009000000
C    -0.836000000     4.233000000     3.568000000
H    -0.845000000     4.217000000     4.660000000
H    -0.930000000     5.270000000     3.238000000
C     0.508000000     3.533000000     3.185000000
C     1.107000000     2.686000000     4.154000000
H     0.490000000     2.414000000     5.007000000
C     1.174000000     3.776000000     2.008000000
C     2.440000000     3.244000000     1.771000000
H     2.902000000     3.598000000     0.853000000
C     3.030000000     2.377000000     2.690000000
O     4.202000000     1.805000000     2.255000000
C     4.059000000     0.549000000     1.617000000
C     4.914000000     0.450000000     0.370000000
C     5.248000000     1.583000000    -0.355000000
H     4.746000000     2.514000000    -0.104000000
C     5.416000000    -0.784000000     0.013000000
H     5.125000000    -1.687000000     0.544000000
O     4.271000000    -0.449000000     2.570000000
H     3.036000000     0.480000000     1.217000000
C     2.304000000     1.974000000     3.819000000
C     2.934000000     0.885000000     4.734000000
H     2.604000000     1.105000000     5.751000000
H     4.024000000     0.942000000     4.768000000
C     2.475000000    -0.487000000     4.184000000
C     3.199000000    -1.035000000     3.163000000
C     2.838000000    -2.295000000     2.667000000
H     3.397000000    -2.637000000     1.800000000
C     1.766000000    -2.983000000     3.210000000
O     1.319000000    -4.167000000     2.549000000
C     0.115000000    -3.952000000     1.672000000
H     0.078000000    -2.858000000     1.571000000
C     0.348000000    -4.442000000     0.207000000
C    -0.738000000    -4.958000000    -0.550000000
H    -1.741000000    -4.975000000    -0.130000000
C     1.652000000    -4.375000000    -0.295000000
H     2.530000000    -4.038000000     0.249000000
C     1.897000000    -4.769000000    -1.628000000
O     3.136000000    -4.731000000    -2.264000000
C     0.845000000    -5.200000000    -2.409000000
H     1.039000000    -5.502000000    -3.435000000
C    -0.500000000    -5.251000000    -1.874000000
O    -1.484000000    -5.498000000    -2.733000000
C    -2.806000000    -5.493000000    -2.513000000
C    -3.577000000    -4.383000000    -3.062000000
H    -3.074000000    -3.493000000    -3.431000000
C    -3.541000000    -6.611000000    -2.039000000
H    -2.957000000    -7.388000000    -1.553000000
C    -4.960000000    -6.549000000    -1.939000000
H    -5.574000000    -7.340000000    -1.516000000
C    -5.658000000    -5.420000000    -2.347000000
H    -6.735000000    -5.382000000    -2.205000000
C    -4.971000000    -4.352000000    -2.929000000
O    -5.694000000    -3.264000000    -3.313000000
C    -5.573000000    -2.094000000    -2.624000000
C    -5.804000000    -0.970000000    -3.423000000
H    -6.118000000    -1.051000000    -4.461000000
C    -5.600000000     0.295000000    -2.933000000
O    -5.617000000     1.307000000    -3.841000000
C    -5.338000000     2.663000000    -3.620000000
C    -4.113000000     3.182000000    -4.149000000
H    -3.452000000     2.602000000    -4.788000000
C    -6.223000000     3.547000000    -2.935000000
H    -7.209000000     3.174000000    -2.670000000
C    -5.907000000     4.910000000    -2.825000000
H    -6.540000000     5.646000000    -2.337000000
C    -4.581000000     5.382000000    -3.098000000
H    -4.260000000     6.375000000    -2.796000000
C    -3.715000000     4.498000000    -3.794000000
O    -2.448000000     4.912000000    -4.040000000
C    -1.355000000     4.581000000    -3.330000000
C    -0.102000000     4.442000000    -3.983000000
H     0.042000000     4.498000000    -5.059000000
C     1.049000000     4.347000000    -3.156000000
O     2.275000000     4.394000000    -3.812000000
C     3.482000000     4.583000000    -3.178000000
C     4.342000000     3.467000000    -2.905000000
H     4.077000000     2.423000000    -3.046000000
C     4.025000000     5.873000000    -3.175000000
H     3.387000000     6.641000000    -3.605000000
C     5.342000000     6.118000000    -2.693000000
H     5.767000000     7.118000000    -2.702000000
C     6.045000000     4.983000000    -2.303000000
H     7.078000000     5.131000000    -1.998000000
C     5.608000000     3.710000000    -2.390000000
O     6.505000000     2.644000000    -2.109000000
C     6.220000000     1.521000000    -1.352000000
C     6.878000000     0.283000000    -1.633000000
H     7.735000000     0.202000000    -2.297000000
C     6.339000000    -0.866000000    -1.019000000
O     6.899000000    -2.049000000    -1.263000000
C     6.275000000    -3.243000000    -1.235000000
C     6.906000000    -4.280000000    -0.519000000
H     7.865000000    -4.124000000    -0.030000000
C     6.179000000    -5.516000000    -0.438000000
H     6.648000000    -6.312000000     0.135000000
C     4.866000000    -5.659000000    -0.974000000
H     4.211000000    -6.520000000    -0.864000000
C     4.333000000    -4.536000000    -1.620000000
C     5.027000000    -3.347000000    -1.776000000
H     4.630000000    -2.499000000    -2.329000000
C     1.606000000    -0.550000000    -1.997000000
H     2.438000000    -1.127000000    -2.394000000
C     1.289000000    -0.440000000    -0.629000000
H     1.982000000    -0.865000000     0.093000000
C     0.223000000     0.299000000    -0.184000000
H    -0.073000000     0.325000000     0.894000000
C    -0.618000000     0.876000000    -1.083000000
H    -1.443000000     1.450000000    -0.670000000
C    -0.264000000     0.873000000    -2.446000000
H    -0.925000000     1.434000000    -3.102000000
C     0.803000000     0.131000000    -2.953000000
C     1.102000000     0.044000000    -4.415000000
O     0.470000000     0.694000000    -5.220000000
O     1.873000000    -0.748000000    -4.853000000
O     4.406000000    -0.175000000    -4.389000000
H     4.839000000    -0.796000000    -4.974000000
H     3.473000000    -0.284000000    -4.571000000
O     3.603000000     3.660000000    -6.394000000
H     3.241000000     4.382000000    -6.908000000
H     2.894000000     3.018000000    -6.352000000
O    -0.402000000     3.768000000    -7.737000000
H     0.364000000     3.234000000    -7.527000000
H    -0.074000000     4.427000000    -8.349000000
O     3.144000000    -1.197000000    -7.445000000
H     2.620000000    -0.886000000    -6.707000000
H     3.875000000    -1.664000000    -7.040000000
O    -0.710000000    -2.338000000    -5.615000000
H    -1.092000000    -1.493000000    -5.379000000
H     0.231000000    -2.220000000    -5.487000000
O    -0.157000000    -5.284000000    -5.606000000
H     0.784000000    -5.297000000    -5.430000000
H    -0.428000000    -4.390000000    -5.399000000
O     5.664000000     1.944000000    -5.491000000
H     5.085000000     1.461000000    -4.901000000
H     5.128000000     2.668000000    -5.813000000
O     1.596000000     2.048000000    -7.265000000
H     1.293000000     1.604000000    -6.473000000
H     1.967000000     1.350000000    -7.805000000
O     1.825000000    -4.559000000    -8.412000000
H     1.993000000    -4.112000000    -7.583000000
H     1.374000000    -5.365000000    -8.162000000
O     2.210000000    -3.360000000    -5.487000000
H     2.238000000    -2.448000000    -5.198000000
H     3.129000000    -3.621000000    -5.544000000
O    -2.014000000     0.507000000    -6.399000000
H    -1.135000000     0.564000000    -6.024000000
H    -2.559000000     0.181000000    -5.684000000
O    -3.048000000     2.625000000    -7.729000000
H    -2.204000000     3.068000000    -7.816000000
H    -2.839000000     1.793000000    -7.304000000
O    -0.218000000    -3.159000000    -9.749000000
H    -0.811000000    -3.903000000    -9.855000000
H     0.427000000    -3.457000000    -9.107000000
O    -1.685000000    -2.117000000    -1.904000000
H    -0.932000000    -2.701000000    -2.001000000
H    -1.411000000    -1.481000000    -1.243000000
O    -2.432000000    -3.820000000    -7.328000000
H    -1.873000000    -3.183000000    -6.884000000
H    -1.840000000    -4.534000000    -7.566000000
O     2.325000000     0.408000000    -9.577000000
H     1.553000000     0.001000000    -9.970000000
H     2.716000000    -0.285000000    -9.044000000
O    -2.087000000    -0.249000000    -9.177000000
H    -2.148000000    -0.187000000    -8.224000000
H    -2.288000000    -1.164000000    -9.371000000
O     5.469000000    -2.024000000    -6.200000000
H     5.310000000    -2.968000000    -6.204000000
H     6.021000000    -1.871000000    -6.967000000
O    -2.808000000    -0.547000000    -3.970000000
H    -3.265000000    -0.123000000    -3.244000000
H    -2.386000000    -1.310000000    -3.575000000
