215
-1461.75935
C    -4.494000000     1.179000000    -2.173000000
H    -4.061000000     2.145000000    -1.927000000
C    -4.691000000     0.203000000    -1.139000000
C    -5.129000000    -1.039000000    -1.476000000
H    -5.277000000    -1.836000000    -0.752000000
C    -4.285000000     0.481000000     0.290000000
O    -4.518000000     1.929000000     0.588000000
H    -3.249000000     0.166000000     0.482000000
O    -5.080000000    -0.289000000     1.260000000
C    -4.355000000    -0.710000000     2.340000000
C    -3.768000000    -1.971000000     2.235000000
H    -4.123000000    -2.665000000     1.477000000
C    -2.764000000    -2.437000000     3.055000000
O    -2.112000000    -3.574000000     2.607000000
C    -2.227000000    -1.606000000     4.096000000
C    -1.135000000    -2.127000000     5.016000000
H    -1.323000000    -1.636000000     5.973000000
C     0.222000000    -1.809000000     4.556000000
C     0.927000000    -0.721000000     5.056000000
H     0.444000000    -0.043000000     5.754000000
H    -1.149000000    -3.212000000     5.139000000
C    -2.874000000    -0.355000000     4.211000000
H    -2.513000000     0.353000000     4.952000000
C    -3.829000000     0.125000000     3.323000000
C    -4.361000000     1.578000000     3.407000000
H    -4.378000000     1.870000000     4.459000000
H    -5.423000000     1.682000000     3.176000000
C    -3.419000000     2.489000000     2.623000000
C    -2.422000000     3.222000000     3.376000000
H    -2.441000000     3.027000000     4.446000000
C    -3.618000000     2.680000000     1.285000000
C    -2.774000000     3.566000000     0.588000000
H    -2.882000000     3.682000000    -0.488000000
C    -1.691000000     4.088000000     1.216000000
O    -0.828000000     4.764000000     0.357000000
C     0.471000000     4.173000000     0.156000000
C     0.771000000     4.176000000    -1.438000000
C     1.984000000     3.697000000    -1.812000000
H     2.801000000     3.598000000    -1.102000000
C    -0.184000000     4.512000000    -2.424000000
H    -1.180000000     4.834000000    -2.131000000
O     1.542000000     4.675000000     0.997000000
H     0.418000000     3.084000000     0.301000000
C    -1.453000000     3.984000000     2.662000000
C    -0.269000000     4.568000000     3.313000000
H    -0.478000000     4.729000000     4.372000000
H    -0.189000000     5.547000000     2.834000000
C     1.008000000     3.715000000     3.137000000
C     1.300000000     2.764000000     4.101000000
H     0.642000000     2.696000000     4.964000000
C     1.869000000     3.839000000     2.018000000
C     2.928000000     3.068000000     1.849000000
H     3.570000000     3.260000000     0.992000000
C     3.307000000     2.156000000     2.860000000
O     4.372000000     1.277000000     2.701000000
C     4.126000000    -0.041000000     2.098000000
C     5.127000000    -0.389000000     1.019000000
C     5.879000000     0.538000000     0.311000000
H     5.767000000     1.601000000     0.511000000
C     5.256000000    -1.715000000     0.659000000
H     4.604000000    -2.427000000     1.159000000
O     4.135000000    -1.022000000     3.216000000
H     3.125000000     0.022000000     1.647000000
C     2.471000000     1.982000000     3.939000000
C     2.829000000     0.908000000     4.989000000
H     2.323000000     1.066000000     5.944000000
H     3.903000000     0.747000000     5.107000000
C     2.243000000    -0.367000000     4.565000000
C     2.877000000    -1.272000000     3.719000000
C     2.161000000    -2.434000000     3.319000000
H     2.717000000    -3.175000000     2.750000000
C     0.839000000    -2.639000000     3.585000000
O     0.156000000    -3.652000000     2.857000000
C    -0.900000000    -3.234000000     1.982000000
H    -0.746000000    -2.176000000     1.724000000
C    -0.729000000    -3.986000000     0.661000000
C    -1.827000000    -4.423000000    -0.051000000
H    -2.821000000    -4.161000000     0.303000000
C     0.540000000    -4.305000000     0.186000000
H     1.424000000    -3.971000000     0.725000000
C     0.645000000    -5.086000000    -0.991000000
O     1.871000000    -5.171000000    -1.561000000
C    -0.424000000    -5.444000000    -1.698000000
H    -0.189000000    -6.024000000    -2.587000000
C    -1.718000000    -5.167000000    -1.236000000
O    -2.752000000    -5.903000000    -1.739000000
C    -3.986000000    -5.435000000    -1.987000000
C    -4.247000000    -4.123000000    -2.525000000
H    -3.421000000    -3.427000000    -2.644000000
C    -5.016000000    -6.348000000    -1.788000000
H    -4.836000000    -7.376000000    -1.486000000
C    -6.265000000    -5.977000000    -2.275000000
H    -7.072000000    -6.705000000    -2.324000000
C    -6.576000000    -4.691000000    -2.719000000
H    -7.556000000    -4.448000000    -3.121000000
C    -5.586000000    -3.748000000    -2.750000000
O    -5.967000000    -2.512000000    -3.192000000
C    -5.473000000    -1.283000000    -2.776000000
C    -5.288000000    -0.356000000    -3.818000000
H    -5.477000000    -0.611000000    -4.858000000
C    -4.826000000     0.906000000    -3.519000000
O    -4.544000000     1.804000000    -4.547000000
C    -4.021000000     3.080000000    -4.514000000
C    -2.631000000     3.299000000    -4.508000000
H    -1.937000000     2.477000000    -4.662000000
C    -4.833000000     4.160000000    -4.275000000
H    -5.912000000     4.031000000    -4.247000000
C    -4.404000000     5.490000000    -4.418000000
H    -5.157000000     6.270000000    -4.498000000
C    -3.050000000     5.685000000    -4.592000000
H    -2.599000000     6.649000000    -4.815000000
C    -2.185000000     4.596000000    -4.524000000
O    -0.874000000     4.825000000    -4.688000000
C     0.089000000     4.450000000    -3.802000000
C     1.307000000     3.888000000    -4.170000000
H     1.554000000     3.704000000    -5.213000000
C     2.221000000     3.539000000    -3.184000000
O     3.243000000     2.666000000    -3.558000000
C     4.557000000     2.863000000    -3.266000000
C     5.187000000     1.886000000    -2.517000000
H     4.663000000     0.950000000    -2.340000000
C     5.094000000     4.139000000    -3.463000000
H     4.538000000     4.952000000    -3.924000000
C     6.495000000     4.326000000    -3.224000000
H     7.077000000     5.144000000    -3.640000000
C     7.182000000     3.247000000    -2.567000000
H     8.265000000     3.274000000    -2.478000000
C     6.474000000     2.114000000    -2.106000000
O     7.217000000     1.162000000    -1.503000000
C     6.658000000     0.178000000    -0.774000000
C     6.876000000    -1.171000000    -1.059000000
H     7.518000000    -1.447000000    -1.893000000
C     6.154000000    -2.136000000    -0.358000000
O     6.301000000    -3.449000000    -0.715000000
C     5.313000000    -4.414000000    -0.603000000
C     5.627000000    -5.552000000     0.099000000
H     6.566000000    -5.653000000     0.637000000
C     4.779000000    -6.655000000     0.228000000
H     4.964000000    -7.584000000     0.760000000
C     3.520000000    -6.516000000    -0.292000000
H     2.823000000    -7.322000000    -0.078000000
C     3.102000000    -5.290000000    -0.912000000
C     4.036000000    -4.304000000    -1.119000000
H     3.831000000    -3.488000000    -1.808000000
C     1.739000000    -0.649000000    -0.647000000
H     2.585000000    -1.326000000    -0.559000000
C     1.007000000    -0.419000000     0.478000000
H     1.426000000    -0.849000000     1.385000000
C    -0.136000000     0.382000000     0.477000000
H    -0.793000000     0.595000000     1.415000000
C    -0.481000000     1.037000000    -0.748000000
H    -1.282000000     1.769000000    -0.807000000
C     0.298000000     0.827000000    -1.843000000
H     0.013000000     1.279000000    -2.790000000
C     1.406000000    -0.052000000    -1.800000000
C     2.291000000    -0.272000000    -3.091000000
O     1.914000000     0.158000000    -4.109000000
O     3.191000000    -1.097000000    -3.018000000
O     4.963000000    -0.893000000    -4.879000000
H     5.170000000    -1.811000000    -5.055000000
H     4.337000000    -0.923000000    -4.156000000
O     4.312000000     1.512000000    -6.065000000
H     3.452000000     1.656000000    -5.670000000
H     4.688000000     0.789000000    -5.562000000
O     1.944000000    -1.421000000    -6.239000000
H     1.913000000    -0.825000000    -5.490000000
H     2.703000000    -1.979000000    -6.070000000
O     0.373000000    -1.909000000    -8.593000000
H     0.990000000    -1.872000000    -7.863000000
H    -0.334000000    -1.316000000    -8.340000000
O    -0.576000000    -3.876000000    -5.518000000
H    -0.146000000    -4.716000000    -5.680000000
H    -0.003000000    -3.429000000    -4.895000000
O     5.229000000     3.918000000    -7.370000000
H     4.799000000     3.103000000    -7.112000000
H     4.509000000     4.508000000    -7.594000000
O     6.193000000    -0.520000000    -8.181000000
H     5.474000000    -0.093000000    -7.714000000
H     5.891000000    -0.573000000    -9.088000000
O     1.655000000     1.386000000    -6.399000000
H     1.631000000     1.222000000    -5.456000000
H     1.872000000     0.536000000    -6.783000000
O     1.171000000    -3.062000000    -3.583000000
H     1.750000000    -2.310000000    -3.705000000
H     1.098000000    -3.157000000    -2.633000000
O    -0.478000000     2.545000000    -7.537000000
H    -0.951000000     1.817000000    -7.940000000
H     0.235000000     2.129000000    -7.053000000
O     2.375000000     3.884000000    -7.910000000
H     1.678000000     4.463000000    -7.600000000
H     2.191000000     3.043000000    -7.492000000
O    -1.362000000    -1.945000000    -1.912000000
H    -2.021000000    -1.330000000    -1.588000000
H    -0.642000000    -1.878000000    -1.284000000
O    -1.257000000    -0.233000000    -7.302000000
H    -1.010000000    -0.661000000    -6.483000000
H    -2.113000000    -0.603000000    -7.517000000
O     3.832000000    -3.455000000    -5.175000000
H     4.712000000    -3.791000000    -5.002000000
H     3.294000000    -3.820000000    -4.472000000
O    -3.174000000    -3.012000000    -5.340000000
H    -2.943000000    -2.084000000    -5.363000000
H    -2.333000000    -3.468000000    -5.313000000
O    -1.105000000    -0.520000000    -4.572000000
H    -0.167000000    -0.333000000    -4.620000000
H    -1.237000000    -0.862000000    -3.688000000
O     4.111000000    -3.830000000    -8.168000000
H     4.136000000    -3.844000000    -7.212000000
H     4.981000000    -3.525000000    -8.426000000
O     1.524000000    -5.590000000    -5.966000000
H     2.410000000    -5.941000000    -6.050000000
H     1.569000000    -4.725000000    -6.374000000
O     7.358000000     0.316000000    -4.211000000
H     6.531000000    -0.154000000    -4.323000000
H     7.340000000     0.995000000    -4.886000000
