215
-1459.40189
C    -5.112000000     0.373000000    -1.921000000
H    -5.244000000     1.408000000    -1.616000000
C    -4.713000000    -0.639000000    -0.995000000
C    -4.583000000    -1.933000000    -1.461000000
H    -4.161000000    -2.723000000    -0.845000000
C    -4.279000000    -0.237000000     0.427000000
O    -4.749000000     1.094000000     0.699000000
H    -3.184000000    -0.295000000     0.340000000
O    -4.764000000    -1.226000000     1.335000000
C    -3.843000000    -1.471000000     2.300000000
C    -3.005000000    -2.580000000     2.141000000
H    -3.116000000    -3.287000000     1.323000000
C    -1.899000000    -2.790000000     2.916000000
O    -1.101000000    -3.909000000     2.619000000
C    -1.662000000    -1.933000000     3.934000000
C    -0.498000000    -2.344000000     4.851000000
H    -0.599000000    -1.933000000     5.857000000
C     0.845000000    -1.732000000     4.387000000
C     1.270000000    -0.504000000     4.869000000
H     0.576000000     0.081000000     5.467000000
H    -0.451000000    -3.430000000     4.952000000
C    -2.454000000    -0.843000000     4.175000000
H    -2.223000000    -0.232000000     5.044000000
C    -3.462000000    -0.489000000     3.254000000
C    -4.203000000     0.798000000     3.365000000
H    -4.199000000     1.039000000     4.430000000
H    -5.264000000     0.743000000     3.116000000
C    -3.541000000     1.909000000     2.639000000
C    -2.579000000     2.764000000     3.266000000
H    -2.353000000     2.659000000     4.324000000
C    -3.877000000     2.028000000     1.268000000
C    -3.335000000     3.036000000     0.499000000
H    -3.579000000     3.151000000    -0.554000000
C    -2.416000000     3.861000000     1.099000000
O    -1.650000000     4.730000000     0.289000000
C    -0.324000000     4.235000000    -0.082000000
C    -0.119000000     4.452000000    -1.553000000
C     1.161000000     4.760000000    -2.140000000
H     1.988000000     4.956000000    -1.462000000
C    -1.141000000     4.232000000    -2.458000000
H    -2.135000000     3.954000000    -2.116000000
O     0.686000000     4.897000000     0.583000000
H    -0.347000000     3.141000000     0.032000000
C    -2.085000000     3.760000000     2.467000000
C    -0.900000000     4.631000000     3.069000000
H    -1.044000000     4.800000000     4.139000000
H    -1.036000000     5.621000000     2.629000000
C     0.453000000     3.961000000     2.818000000
C     1.010000000     3.194000000     3.784000000
H     0.584000000     3.109000000     4.781000000
C     1.130000000     4.176000000     1.612000000
C     2.280000000     3.466000000     1.414000000
H     2.744000000     3.581000000     0.438000000
C     2.792000000     2.609000000     2.372000000
O     3.979000000     2.018000000     2.016000000
C     3.930000000     0.600000000     1.738000000
C     4.791000000     0.220000000     0.544000000
C     5.073000000     1.136000000    -0.428000000
H     4.681000000     2.148000000    -0.378000000
C     5.364000000    -1.060000000     0.433000000
H     5.131000000    -1.816000000     1.178000000
O     4.353000000    -0.107000000     2.911000000
H     2.878000000     0.465000000     1.447000000
C     2.139000000     2.412000000     3.567000000
C     2.757000000     1.550000000     4.697000000
H     2.493000000     1.778000000     5.731000000
H     3.845000000     1.634000000     4.660000000
C     2.435000000     0.113000000     4.356000000
C     3.279000000    -0.653000000     3.498000000
C     2.890000000    -1.888000000     3.056000000
H     3.370000000    -2.513000000     2.307000000
C     1.670000000    -2.416000000     3.452000000
O     1.322000000    -3.697000000     2.931000000
C     0.195000000    -3.649000000     1.962000000
H     0.090000000    -2.632000000     1.557000000
C     0.371000000    -4.513000000     0.753000000
C    -0.722000000    -5.201000000     0.179000000
H    -1.719000000    -5.104000000     0.602000000
C     1.653000000    -4.818000000     0.228000000
H     2.560000000    -4.466000000     0.711000000
C     1.852000000    -5.420000000    -0.980000000
O     3.059000000    -5.288000000    -1.684000000
C     0.693000000    -5.818000000    -1.693000000
H     0.696000000    -6.208000000    -2.707000000
C    -0.516000000    -5.862000000    -1.005000000
O    -1.577000000    -6.565000000    -1.550000000
C    -2.862000000    -6.091000000    -1.694000000
C    -3.199000000    -4.999000000    -2.412000000
H    -2.450000000    -4.451000000    -2.977000000
C    -3.805000000    -6.863000000    -1.020000000
H    -3.487000000    -7.729000000    -0.444000000
C    -5.109000000    -6.508000000    -1.049000000
H    -5.950000000    -7.013000000    -0.582000000
C    -5.488000000    -5.472000000    -1.898000000
H    -6.498000000    -5.146000000    -2.134000000
C    -4.536000000    -4.690000000    -2.496000000
O    -4.841000000    -3.550000000    -3.305000000
C    -4.877000000    -2.207000000    -2.817000000
C    -5.296000000    -1.222000000    -3.728000000
H    -5.605000000    -1.408000000    -4.753000000
C    -5.335000000     0.103000000    -3.300000000
O    -5.652000000     1.079000000    -4.174000000
C    -5.310000000     2.418000000    -4.052000000
C    -3.962000000     2.754000000    -4.222000000
H    -3.238000000     1.969000000    -4.423000000
C    -6.200000000     3.460000000    -3.749000000
H    -7.269000000     3.382000000    -3.568000000
C    -5.777000000     4.808000000    -3.776000000
H    -6.455000000     5.595000000    -3.457000000
C    -4.439000000     5.133000000    -4.039000000
H    -4.188000000     6.188000000    -4.110000000
C    -3.524000000     4.095000000    -4.296000000
O    -2.154000000     4.419000000    -4.648000000
C    -1.002000000     4.465000000    -3.812000000
C     0.242000000     4.756000000    -4.349000000
H     0.272000000     4.785000000    -5.435000000
C     1.375000000     4.826000000    -3.516000000
O     2.651000000     4.976000000    -3.989000000
C     3.847000000     4.678000000    -3.319000000
C     4.296000000     3.342000000    -3.291000000
H     3.662000000     2.543000000    -3.667000000
C     4.584000000     5.725000000    -2.598000000
H     4.261000000     6.760000000    -2.527000000
C     5.716000000     5.287000000    -1.856000000
H     6.121000000     6.059000000    -1.207000000
C     6.136000000     3.969000000    -1.930000000
H     7.043000000     3.691000000    -1.398000000
C     5.532000000     3.015000000    -2.711000000
O     6.072000000     1.709000000    -2.641000000
C     5.819000000     0.810000000    -1.555000000
C     6.084000000    -0.523000000    -1.785000000
H     6.587000000    -0.825000000    -2.700000000
C     6.116000000    -1.392000000    -0.711000000
O     6.809000000    -2.554000000    -0.937000000
C     6.133000000    -3.743000000    -0.729000000
C     6.709000000    -4.714000000     0.055000000
H     7.702000000    -4.535000000     0.458000000
C     6.087000000    -5.917000000     0.418000000
H     6.554000000    -6.691000000     1.022000000
C     4.827000000    -6.186000000    -0.176000000
H     4.262000000    -7.027000000     0.217000000
C     4.298000000    -5.228000000    -1.090000000
C     4.905000000    -3.981000000    -1.313000000
H     4.433000000    -3.265000000    -1.981000000
C     2.241000000    -0.438000000    -2.041000000
H     3.232000000    -0.816000000    -2.277000000
C     1.688000000    -0.682000000    -0.770000000
H     2.270000000    -1.241000000    -0.043000000
C     0.518000000    -0.110000000    -0.293000000
H     0.233000000    -0.147000000     0.764000000
C    -0.367000000     0.496000000    -1.225000000
H    -1.404000000     0.740000000    -1.010000000
C     0.139000000     0.726000000    -2.508000000
H    -0.474000000     1.225000000    -3.255000000
C     1.422000000     0.277000000    -2.925000000
C     2.049000000     0.500000000    -4.304000000
O     1.696000000     1.455000000    -4.995000000
O     2.936000000    -0.270000000    -4.713000000
O     6.862000000    -2.179000000    -6.240000000
H     7.541000000    -2.421000000    -5.610000000
H     6.361000000    -1.492000000    -5.799000000
O     4.493000000     0.791000000    -9.407000000
H     4.447000000     0.231000000    -8.632000000
H     3.867000000     1.493000000    -9.233000000
O     2.431000000     3.206000000    -6.862000000
H     1.722000000     3.045000000    -7.484000000
H     2.130000000     2.806000000    -6.046000000
O     5.562000000    -0.160000000    -5.029000000
H     4.616000000    -0.212000000    -5.166000000
H     5.673000000     0.540000000    -4.387000000
O    -2.862000000     2.567000000    -8.050000000
H    -3.584000000     1.952000000    -7.925000000
H    -2.105000000     2.130000000    -7.660000000
O     2.038000000    -0.388000000    -7.265000000
H     2.246000000     0.032000000    -6.431000000
H     2.856000000    -0.806000000    -7.534000000
O     2.144000000    -3.607000000    -7.459000000
H     2.268000000    -3.701000000    -6.514000000
H     2.226000000    -2.667000000    -7.619000000
O     7.064000000     1.066000000    -7.063000000
H     6.366000000     0.775000000    -6.477000000
H     7.868000000     0.943000000    -6.559000000
O     5.554000000    -4.438000000    -7.508000000
H     6.174000000    -3.728000000    -7.340000000
H     4.742000000    -3.993000000    -7.750000000
O     4.634000000    -1.514000000    -7.758000000
H     5.127000000    -1.778000000    -8.535000000
H     5.294000000    -1.440000000    -7.069000000
O    -1.011000000     1.342000000    -6.069000000
H    -1.409000000     0.563000000    -5.681000000
H    -0.105000000     1.329000000    -5.760000000
O     2.077000000    -3.051000000    -4.612000000
H     2.444000000    -2.176000000    -4.486000000
H     2.841000000    -3.621000000    -4.702000000
O    -2.495000000    -0.761000000    -5.357000000
H    -2.533000000    -1.221000000    -6.196000000
H    -2.243000000    -1.436000000    -4.726000000
O     4.695000000     4.696000000    -6.888000000
H     4.064000000     4.112000000    -6.467000000
H     4.257000000     4.984000000    -7.689000000
O    -0.642000000    -2.269000000    -3.608000000
H     0.077000000    -2.901000000    -3.616000000
H    -0.260000000    -1.477000000    -3.231000000
O     4.444000000    -4.489000000    -4.974000000
H     4.964000000    -4.444000000    -5.776000000
H     4.916000000    -5.108000000    -4.417000000
O    -1.462000000     5.196000000    -7.684000000
H    -1.761000000     4.314000000    -7.460000000
H    -0.981000000     5.085000000    -8.504000000
O    -1.302000000    -3.598000000    -5.833000000
H    -1.323000000    -3.309000000    -4.920000000
H    -0.465000000    -3.273000000    -6.167000000
O    -0.363000000    -0.222000000    -9.738000000
H     0.374000000    -0.096000000    -9.140000000
H    -0.632000000    -1.130000000    -9.598000000
