215
-1425.28592
C    -5.190000000    -1.194000000    -1.173000000
H    -5.721000000    -0.325000000    -0.794000000
C    -4.320000000    -1.951000000    -0.281000000
C    -3.623000000    -2.967000000    -0.858000000
H    -2.899000000    -3.573000000    -0.320000000
C    -3.944000000    -1.471000000     1.121000000
O    -4.754000000    -0.435000000     1.617000000
H    -2.951000000    -1.015000000     0.998000000
O    -3.702000000    -2.559000000     2.092000000
C    -2.598000000    -2.429000000     2.986000000
C    -1.496000000    -3.264000000     2.710000000
H    -1.635000000    -3.895000000     1.836000000
C    -0.284000000    -3.097000000     3.358000000
O     0.790000000    -3.805000000     2.980000000
C    -0.199000000    -2.109000000     4.348000000
C     1.057000000    -1.814000000     5.131000000
H     0.796000000    -1.370000000     6.094000000
C     2.043000000    -0.974000000     4.412000000
C     2.009000000     0.354000000     4.780000000
H     1.382000000     0.806000000     5.545000000
H     1.549000000    -2.749000000     5.408000000
C    -1.298000000    -1.355000000     4.674000000
H    -1.229000000    -0.599000000     5.452000000
C    -2.513000000    -1.390000000     3.955000000
C    -3.578000000    -0.336000000     4.229000000
H    -3.408000000     0.006000000     5.253000000
H    -4.494000000    -0.925000000     4.151000000
C    -3.569000000     0.804000000     3.259000000
C    -2.912000000     2.014000000     3.565000000
H    -2.481000000     2.155000000     4.553000000
C    -4.135000000     0.708000000     1.979000000
C    -4.251000000     1.750000000     1.111000000
H    -4.675000000     1.612000000     0.120000000
C    -3.567000000     2.968000000     1.436000000
O    -3.312000000     3.792000000     0.370000000
C    -1.962000000     3.589000000    -0.251000000
C    -2.136000000     3.612000000    -1.803000000
C    -0.943000000     3.743000000    -2.519000000
H    -0.002000000     3.775000000    -1.975000000
C    -3.377000000     3.451000000    -2.498000000
H    -4.276000000     3.349000000    -1.894000000
O    -1.013000000     4.562000000     0.306000000
H    -1.629000000     2.628000000     0.167000000
C    -2.877000000     3.065000000     2.627000000
C    -2.044000000     4.239000000     2.972000000
H    -2.206000000     4.371000000     4.044000000
H    -2.512000000     5.118000000     2.525000000
C    -0.563000000     3.958000000     2.562000000
C     0.364000000     3.497000000     3.562000000
H    -0.063000000     3.309000000     4.544000000
C    -0.126000000     4.165000000     1.271000000
C     1.219000000     4.044000000     0.906000000
H     1.583000000     4.242000000    -0.098000000
C     2.118000000     3.609000000     1.909000000
O     3.383000000     3.415000000     1.369000000
C     3.771000000     2.062000000     1.095000000
C     4.614000000     1.968000000    -0.196000000
C     4.456000000     2.896000000    -1.207000000
H     3.775000000     3.730000000    -1.060000000
C     5.417000000     0.776000000    -0.463000000
H     5.512000000    -0.063000000     0.222000000
O     4.454000000     1.531000000     2.252000000
H     2.873000000     1.451000000     0.924000000
C     1.736000000     3.302000000     3.224000000
C     2.663000000     2.759000000     4.317000000
H     2.244000000     2.853000000     5.321000000
H     3.665000000     3.194000000     4.340000000
C     2.835000000     1.247000000     4.075000000
C     3.756000000     0.732000000     3.115000000
C     3.828000000    -0.641000000     2.887000000
H     4.437000000    -0.969000000     2.048000000
C     2.899000000    -1.462000000     3.441000000
O     2.904000000    -2.794000000     2.878000000
C     1.738000000    -3.152000000     2.172000000
H     1.191000000    -2.261000000     1.828000000
C     2.047000000    -3.968000000     0.865000000
C     1.179000000    -4.903000000     0.320000000
H     0.148000000    -4.946000000     0.659000000
C     3.372000000    -3.981000000     0.393000000
H     4.070000000    -3.312000000     0.890000000
C     3.777000000    -4.773000000    -0.713000000
O     4.991000000    -4.680000000    -1.326000000
C     2.867000000    -5.716000000    -1.244000000
H     3.043000000    -6.411000000    -2.061000000
C     1.581000000    -5.742000000    -0.691000000
O     0.728000000    -6.761000000    -1.030000000
C    -0.618000000    -6.699000000    -1.220000000
C    -1.173000000    -5.579000000    -1.797000000
H    -0.562000000    -4.855000000    -2.330000000
C    -1.460000000    -7.672000000    -0.734000000
H    -1.089000000    -8.560000000    -0.228000000
C    -2.827000000    -7.555000000    -0.761000000
H    -3.470000000    -8.303000000    -0.303000000
C    -3.416000000    -6.427000000    -1.391000000
H    -4.497000000    -6.311000000    -1.395000000
C    -2.562000000    -5.487000000    -1.954000000
O    -3.073000000    -4.424000000    -2.697000000
C    -3.824000000    -3.361000000    -2.223000000
C    -4.653000000    -2.637000000    -2.997000000
H    -4.791000000    -3.002000000    -4.012000000
C    -5.396000000    -1.637000000    -2.421000000
O    -6.348000000    -1.035000000    -3.219000000
C    -6.559000000     0.302000000    -3.442000000
C    -5.531000000     1.091000000    -3.918000000
H    -4.521000000     0.689000000    -3.947000000
C    -7.901000000     0.776000000    -3.480000000
H    -8.805000000     0.238000000    -3.204000000
C    -8.068000000     2.171000000    -3.893000000
H    -9.046000000     2.646000000    -3.926000000
C    -6.935000000     2.943000000    -4.188000000
H    -6.966000000     3.972000000    -4.536000000
C    -5.661000000     2.441000000    -4.259000000
O    -4.550000000     3.234000000    -4.563000000
C    -3.338000000     3.305000000    -3.860000000
C    -2.104000000     3.551000000    -4.518000000
H    -2.050000000     3.529000000    -5.603000000
C    -0.947000000     3.720000000    -3.877000000
O     0.242000000     3.980000000    -4.562000000
C     1.428000000     4.591000000    -4.080000000
C     2.613000000     3.847000000    -3.871000000
H     2.644000000     2.776000000    -4.055000000
C     1.424000000     5.998000000    -3.965000000
H     0.567000000     6.589000000    -4.278000000
C     2.565000000     6.656000000    -3.484000000
H     2.565000000     7.742000000    -3.444000000
C     3.715000000     5.883000000    -3.232000000
H     4.624000000     6.329000000    -2.835000000
C     3.797000000     4.454000000    -3.449000000
O     4.966000000     3.715000000    -3.355000000
C     5.138000000     2.740000000    -2.396000000
C     5.942000000     1.695000000    -2.645000000
H     6.506000000     1.552000000    -3.563000000
C     6.129000000     0.716000000    -1.671000000
O     6.956000000    -0.361000000    -1.942000000
C     6.998000000    -1.638000000    -1.226000000
C     7.886000000    -1.916000000    -0.202000000
H     8.480000000    -1.126000000     0.251000000
C     7.781000000    -3.170000000     0.566000000
H     8.402000000    -3.518000000     1.388000000
C     6.798000000    -4.025000000     0.155000000
H     6.676000000    -4.933000000     0.741000000
C     5.923000000    -3.779000000    -0.929000000
C     6.115000000    -2.622000000    -1.662000000
H     5.481000000    -2.340000000    -2.498000000
C     1.410000000    -1.495000000    -1.775000000
H     2.107000000    -2.131000000    -2.315000000
C     1.774000000    -0.864000000    -0.561000000
H     2.785000000    -0.663000000    -0.215000000
C     0.844000000    -0.125000000     0.151000000
H     1.084000000     0.292000000     1.126000000
C    -0.453000000    -0.085000000    -0.306000000
H    -1.221000000     0.372000000     0.313000000
C    -0.835000000    -0.700000000    -1.525000000
H    -1.875000000    -0.651000000    -1.839000000
C     0.064000000    -1.415000000    -2.278000000
C    -0.328000000    -2.103000000    -3.655000000
O    -1.353000000    -1.751000000    -4.223000000
O     0.537000000    -2.616000000    -4.307000000
O     3.695000000    -0.767000000    -7.167000000
H     4.139000000    -0.449000000    -6.381000000
H     3.803000000    -0.061000000    -7.805000000
O    -0.303000000    -4.892000000    -7.399000000
H    -0.086000000    -4.955000000    -8.329000000
H    -0.117000000    -3.981000000    -7.171000000
O    -1.903000000    -1.285000000    -8.169000000
H    -2.242000000    -0.588000000    -7.607000000
H    -1.018000000    -1.447000000    -7.842000000
O     0.738000000     0.620000000    -5.950000000
H     1.098000000    -0.075000000    -5.399000000
H     1.487000000     1.184000000    -6.143000000
O     0.734000000    -5.290000000    -4.559000000
H     0.908000000    -4.358000000    -4.427000000
H     0.115000000    -5.317000000    -5.289000000
O     3.101000000    -7.058000000    -5.076000000
H     2.600000000    -7.225000000    -5.875000000
H     2.484000000    -6.613000000    -4.496000000
O    -3.179000000    -6.084000000    -7.979000000
H    -3.095000000    -6.973000000    -7.634000000
H    -3.205000000    -5.527000000    -7.201000000
O     3.328000000    -2.400000000    -4.327000000
H     2.371000000    -2.371000000    -4.298000000
H     3.530000000    -2.753000000    -5.194000000
O    -3.225000000     2.163000000    -7.646000000
H    -3.368000000     1.775000000    -6.783000000
H    -2.461000000     1.702000000    -7.993000000
O    -0.557000000     2.296000000    -8.036000000
H    -0.017000000     3.015000000    -8.365000000
H    -0.033000000     1.903000000    -7.337000000
O     0.343000000    -2.300000000    -6.817000000
H     0.660000000    -1.418000000    -7.011000000
H     0.256000000    -2.319000000    -5.864000000
O    -2.321000000    -3.900000000    -5.678000000
H    -1.603000000    -4.237000000    -6.214000000
H    -1.906000000    -3.269000000    -5.090000000
O    -4.311000000    -6.343000000    -4.440000000
H    -3.928000000    -5.675000000    -3.872000000
H    -3.671000000    -7.055000000    -4.438000000
O     1.987000000    -2.022000000    -9.727000000
H     2.500000000    -2.253000000    -8.952000000
H     2.602000000    -1.553000000   -10.290000000
O     4.506000000     0.162000000    -4.845000000
H     3.962000000    -0.498000000    -4.415000000
H     5.217000000     0.328000000    -4.225000000
O    -0.056000000    -8.247000000    -4.256000000
H     0.121000000    -7.437000000    -3.779000000
H    -0.021000000    -7.994000000    -5.179000000
O    -0.157000000    -7.576000000    -7.620000000
H    -0.280000000    -6.636000000    -7.493000000
H     0.283000000    -7.648000000    -8.467000000
O    -2.346000000     0.376000000    -5.443000000
H    -2.100000000    -0.485000000    -5.107000000
H    -1.689000000     0.971000000    -5.081000000
O    -4.137000000    -2.403000000    -7.251000000
H    -3.926000000    -2.943000000    -6.489000000
H    -3.296000000    -2.263000000    -7.686000000
