215
-1436.11887
C    -5.326000000    -1.062000000    -0.283000000
H    -5.323000000     0.014000000    -0.132000000
C    -4.547000000    -1.810000000     0.602000000
C    -4.518000000    -3.153000000     0.458000000
H    -3.884000000    -3.738000000     1.120000000
C    -3.765000000    -1.094000000     1.738000000
O    -4.467000000     0.109000000     2.265000000
H    -2.805000000    -0.872000000     1.250000000
O    -3.560000000    -1.963000000     2.909000000
C    -2.361000000    -1.978000000     3.618000000
C    -1.482000000    -2.999000000     3.257000000
H    -1.794000000    -3.664000000     2.456000000
C    -0.160000000    -2.916000000     3.683000000
O     0.625000000    -3.842000000     3.116000000
C     0.275000000    -1.854000000     4.559000000
C     1.720000000    -1.755000000     5.028000000
H     1.720000000    -1.207000000     5.973000000
C     2.582000000    -1.061000000     4.011000000
C     2.847000000     0.315000000     4.114000000
H     2.477000000     0.864000000     4.976000000
H     2.013000000    -2.793000000     5.201000000
C    -0.719000000    -0.981000000     5.008000000
H    -0.447000000    -0.109000000     5.597000000
C    -1.965000000    -0.944000000     4.489000000
C    -2.938000000     0.169000000     4.778000000
H    -2.776000000     0.577000000     5.778000000
H    -3.922000000    -0.302000000     4.831000000
C    -2.916000000     1.302000000     3.661000000
C    -1.974000000     2.315000000     3.734000000
H    -1.198000000     2.268000000     4.493000000
C    -3.718000000     1.215000000     2.483000000
C    -3.579000000     2.162000000     1.467000000
H    -4.161000000     2.091000000     0.552000000
C    -2.630000000     3.197000000     1.585000000
O    -2.429000000     4.030000000     0.529000000
C    -1.183000000     3.941000000    -0.217000000
C    -1.442000000     4.013000000    -1.715000000
C    -0.619000000     4.676000000    -2.587000000
H     0.228000000     5.247000000    -2.217000000
C    -2.560000000     3.274000000    -2.211000000
H    -3.209000000     2.808000000    -1.474000000
O    -0.200000000     4.915000000     0.215000000
H    -0.808000000     2.918000000    -0.066000000
C    -1.845000000     3.289000000     2.727000000
C    -0.860000000     4.419000000     2.961000000
H    -0.726000000     4.765000000     3.988000000
H    -1.380000000     5.219000000     2.429000000
C     0.538000000     4.183000000     2.388000000
C     1.538000000     3.630000000     3.173000000
H     1.231000000     3.356000000     4.179000000
C     0.852000000     4.526000000     1.036000000
C     2.105000000     4.237000000     0.516000000
H     2.259000000     4.397000000    -0.549000000
C     3.015000000     3.512000000     1.297000000
O     4.139000000     3.070000000     0.642000000
C     4.126000000     1.675000000     0.222000000
C     4.446000000     1.556000000    -1.238000000
C     4.021000000     2.470000000    -2.226000000
H     3.577000000     3.393000000    -1.862000000
C     4.874000000     0.296000000    -1.663000000
H     5.199000000    -0.428000000    -0.921000000
O     4.958000000     0.929000000     1.111000000
H     3.111000000     1.268000000     0.337000000
C     2.762000000     3.265000000     2.604000000
C     3.763000000     2.493000000     3.410000000
H     3.628000000     2.729000000     4.467000000
H     4.787000000     2.735000000     3.119000000
C     3.633000000     0.950000000     3.159000000
C     4.203000000     0.321000000     2.068000000
C     4.028000000    -1.056000000     2.052000000
H     4.476000000    -1.583000000     1.213000000
C     3.109000000    -1.716000000     2.902000000
O     2.767000000    -2.997000000     2.534000000
C     1.413000000    -3.320000000     2.009000000
H     1.017000000    -2.368000000     1.627000000
C     1.378000000    -4.278000000     0.779000000
C     0.259000000    -4.950000000     0.334000000
H    -0.701000000    -4.913000000     0.841000000
C     2.592000000    -4.343000000     0.055000000
H     3.438000000    -3.754000000     0.398000000
C     2.735000000    -5.054000000    -1.078000000
O     3.877000000    -5.309000000    -1.722000000
C     1.622000000    -5.747000000    -1.462000000
H     1.715000000    -6.312000000    -2.386000000
C     0.413000000    -5.808000000    -0.813000000
O    -0.663000000    -6.576000000    -1.297000000
C    -1.941000000    -6.749000000    -0.799000000
C    -2.898000000    -5.764000000    -0.984000000
H    -2.837000000    -4.831000000    -1.538000000
C    -2.165000000    -7.928000000    -0.088000000
H    -1.383000000    -8.683000000    -0.043000000
C    -3.467000000    -8.121000000     0.435000000
H    -3.827000000    -9.053000000     0.863000000
C    -4.469000000    -7.199000000     0.127000000
H    -5.523000000    -7.373000000     0.329000000
C    -4.192000000    -5.992000000    -0.515000000
O    -5.267000000    -5.142000000    -0.655000000
C    -5.306000000    -3.767000000    -0.539000000
C    -6.104000000    -2.990000000    -1.433000000
H    -6.674000000    -3.448000000    -2.238000000
C    -6.140000000    -1.614000000    -1.292000000
O    -6.861000000    -0.822000000    -2.165000000
C    -6.557000000     0.505000000    -2.335000000
C    -5.471000000     0.957000000    -3.104000000
H    -4.806000000     0.262000000    -3.611000000
C    -7.301000000     1.406000000    -1.577000000
H    -7.936000000     0.963000000    -0.814000000
C    -6.921000000     2.756000000    -1.696000000
H    -7.563000000     3.479000000    -1.199000000
C    -5.953000000     3.191000000    -2.581000000
H    -5.718000000     4.252000000    -2.549000000
C    -5.145000000     2.264000000    -3.258000000
O    -4.109000000     2.740000000    -4.006000000
C    -2.914000000     3.292000000    -3.599000000
C    -2.066000000     3.964000000    -4.450000000
H    -2.348000000     4.150000000    -5.483000000
C    -0.879000000     4.630000000    -3.919000000
O    -0.087000000     5.396000000    -4.756000000
C     1.297000000     5.510000000    -4.548000000
C     2.083000000     4.345000000    -4.601000000
H     1.583000000     3.401000000    -4.799000000
C     1.901000000     6.774000000    -4.490000000
H     1.365000000     7.720000000    -4.482000000
C     3.270000000     6.879000000    -4.269000000
H     3.746000000     7.844000000    -4.119000000
C     4.062000000     5.694000000    -4.186000000
H     5.123000000     5.774000000    -3.962000000
C     3.440000000     4.455000000    -4.360000000
O     4.289000000     3.357000000    -4.432000000
C     4.350000000     2.273000000    -3.550000000
C     4.918000000     1.037000000    -3.902000000
H     5.096000000     0.898000000    -4.965000000
C     5.156000000     0.080000000    -2.978000000
O     5.656000000    -1.180000000    -3.388000000
C     5.836000000    -2.341000000    -2.588000000
C     6.934000000    -2.431000000    -1.750000000
H     7.674000000    -1.636000000    -1.769000000
C     6.999000000    -3.447000000    -0.837000000
H     7.857000000    -3.513000000    -0.172000000
C     5.897000000    -4.364000000    -0.738000000
H     5.843000000    -5.007000000     0.137000000
C     4.898000000    -4.403000000    -1.746000000
C     4.901000000    -3.380000000    -2.684000000
H     4.080000000    -3.519000000    -3.382000000
C     0.411000000    -1.873000000    -2.060000000
H     0.935000000    -2.717000000    -2.501000000
C     0.797000000    -1.148000000    -0.914000000
H     1.730000000    -1.530000000    -0.509000000
C    -0.086000000    -0.263000000    -0.303000000
H     0.172000000     0.294000000     0.558000000
C    -1.348000000    -0.061000000    -0.899000000
H    -2.099000000     0.646000000    -0.558000000
C    -1.696000000    -0.717000000    -2.099000000
H    -2.703000000    -0.509000000    -2.451000000
C    -0.903000000    -1.763000000    -2.581000000
C    -1.312000000    -2.578000000    -3.799000000
O    -2.453000000    -2.787000000    -4.175000000
O    -0.479000000    -2.953000000    -4.571000000
O    -0.086000000    -2.796000000    -7.350000000
H     0.181000000    -3.688000000    -7.570000000
H    -0.257000000    -2.821000000    -6.409000000
O     3.836000000    -4.106000000    -6.972000000
H     3.381000000    -4.209000000    -6.136000000
H     4.582000000    -3.542000000    -6.771000000
O     1.985000000     0.697000000    -6.301000000
H     1.262000000     0.827000000    -5.687000000
H     2.027000000     1.513000000    -6.799000000
O    -0.468000000    -6.633000000    -5.861000000
H    -1.205000000    -6.079000000    -5.605000000
H    -0.135000000    -6.233000000    -6.665000000
O    -6.286000000    -1.068000000    -6.048000000
H    -6.953000000    -0.833000000    -5.402000000
H    -5.647000000    -1.583000000    -5.556000000
O     0.843000000    -0.652000000    -8.960000000
H     0.416000000    -1.296000000    -8.396000000
H     1.447000000    -0.188000000    -8.380000000
O    -6.330000000    -5.953000000    -4.164000000
H    -6.832000000    -5.755000000    -4.955000000
H    -5.465000000    -6.205000000    -4.486000000
O     2.621000000    -6.920000000    -5.182000000
H     1.890000000    -6.706000000    -5.762000000
H     2.763000000    -6.124000000    -4.671000000
O     1.997000000    -4.297000000    -4.812000000
H     1.041000000    -4.335000000    -4.828000000
H     2.203000000    -3.370000000    -4.936000000
O    -2.025000000     0.402000000    -8.783000000
H    -1.100000000     0.160000000    -8.839000000
H    -2.175000000     0.559000000    -7.850000000
O    -4.694000000    -4.742000000    -7.709000000
H    -4.013000000    -4.549000000    -7.066000000
H    -4.354000000    -5.489000000    -8.202000000
O    -0.727000000     2.616000000    -6.864000000
H     0.076000000     2.578000000    -7.384000000
H    -0.476000000     2.263000000    -6.010000000
O    -2.265000000    -4.560000000    -6.154000000
H    -1.686000000    -4.282000000    -6.864000000
H    -2.188000000    -3.867000000    -5.498000000
O    -3.686000000    -6.731000000    -5.054000000
H    -4.031000000    -7.087000000    -5.873000000
H    -3.132000000    -5.999000000    -5.327000000
O     2.721000000    -1.735000000    -5.192000000
H     2.955000000    -1.550000000    -6.102000000
H     2.228000000    -0.964000000    -4.911000000
O    -2.537000000    -0.759000000    -5.911000000
H    -2.473000000    -1.442000000    -6.579000000
H    -2.647000000    -1.237000000    -5.089000000
O    -1.835000000    -8.224000000    -3.747000000
H    -2.580000000    -7.730000000    -4.089000000
H    -1.083000000    -7.647000000    -3.881000000
O    -0.313000000     0.885000000    -4.697000000
H    -1.028000000     0.298000000    -4.942000000
H    -0.193000000     0.738000000    -3.759000000
O    -4.965000000    -3.334000000    -4.570000000
H    -5.209000000    -4.133000000    -4.102000000
H    -4.085000000    -3.130000000    -4.252000000
