215
-1429.52294
C    -5.574000000    -1.322000000    -0.931000000
H    -5.889000000    -0.321000000    -0.650000000
C    -4.724000000    -1.983000000    -0.030000000
C    -4.321000000    -3.276000000    -0.389000000
H    -3.525000000    -3.780000000     0.154000000
C    -4.032000000    -1.240000000     1.126000000
O    -4.763000000    -0.102000000     1.581000000
H    -3.034000000    -0.924000000     0.786000000
O    -3.817000000    -2.171000000     2.248000000
C    -2.694000000    -2.032000000     3.041000000
C    -1.657000000    -2.870000000     2.732000000
H    -1.791000000    -3.608000000     1.945000000
C    -0.540000000    -2.852000000     3.514000000
O     0.395000000    -3.785000000     3.164000000
C    -0.342000000    -1.899000000     4.530000000
C     1.073000000    -1.727000000     5.169000000
H     1.111000000    -1.217000000     6.134000000
C     2.044000000    -1.000000000     4.174000000
C     2.218000000     0.316000000     4.298000000
H     1.509000000     0.844000000     4.930000000
H     1.504000000    -2.707000000     5.380000000
C    -1.361000000    -0.946000000     4.765000000
H    -1.261000000    -0.170000000     5.520000000
C    -2.544000000    -1.020000000     4.028000000
C    -3.667000000     0.023000000     4.290000000
H    -3.520000000     0.447000000     5.286000000
H    -4.651000000    -0.419000000     4.125000000
C    -3.432000000     1.099000000     3.243000000
C    -2.520000000     2.091000000     3.551000000
H    -2.084000000     2.027000000     4.544000000
C    -4.020000000     1.001000000     1.979000000
C    -3.809000000     2.019000000     1.057000000
H    -4.267000000     2.098000000     0.074000000
C    -3.048000000     3.183000000     1.442000000
O    -2.777000000     4.092000000     0.471000000
C    -1.527000000     3.801000000    -0.174000000
C    -1.661000000     3.890000000    -1.707000000
C    -0.717000000     4.540000000    -2.440000000
H     0.062000000     5.164000000    -2.011000000
C    -2.619000000     3.074000000    -2.344000000
H    -3.193000000     2.364000000    -1.754000000
O    -0.560000000     4.716000000     0.324000000
H    -1.088000000     2.825000000     0.077000000
C    -2.365000000     3.180000000     2.708000000
C    -1.354000000     4.315000000     3.011000000
H    -1.414000000     4.583000000     4.068000000
H    -1.686000000     5.281000000     2.625000000
C     0.072000000     4.029000000     2.565000000
C     1.045000000     3.570000000     3.433000000
H     0.807000000     3.251000000     4.444000000
C     0.403000000     4.321000000     1.261000000
C     1.650000000     4.036000000     0.802000000
H     1.947000000     4.257000000    -0.220000000
C     2.615000000     3.653000000     1.669000000
O     3.795000000     3.190000000     1.116000000
C     3.905000000     1.805000000     0.690000000
C     4.461000000     1.710000000    -0.725000000
C     4.360000000     2.721000000    -1.636000000
H     4.028000000     3.697000000    -1.291000000
C     5.003000000     0.493000000    -1.091000000
H     5.168000000    -0.265000000    -0.330000000
O     4.654000000     0.932000000     1.624000000
H     2.906000000     1.355000000     0.583000000
C     2.304000000     3.355000000     2.948000000
C     3.257000000     2.548000000     3.798000000
H     3.175000000     2.730000000     4.871000000
H     4.320000000     2.725000000     3.618000000
C     3.154000000     1.046000000     3.613000000
C     3.841000000     0.363000000     2.549000000
C     3.697000000    -1.031000000     2.430000000
H     4.119000000    -1.578000000     1.591000000
C     2.879000000    -1.712000000     3.306000000
O     2.562000000    -2.927000000     2.962000000
C     1.370000000    -3.286000000     2.220000000
H     1.057000000    -2.318000000     1.799000000
C     1.736000000    -4.177000000     1.060000000
C     0.785000000    -5.083000000     0.579000000
H    -0.230000000    -5.012000000     0.963000000
C     3.050000000    -4.304000000     0.604000000
H     3.800000000    -3.642000000     1.029000000
C     3.388000000    -5.120000000    -0.426000000
O     4.672000000    -5.134000000    -0.928000000
C     2.435000000    -5.902000000    -1.002000000
H     2.761000000    -6.611000000    -1.759000000
C     1.106000000    -5.954000000    -0.472000000
O     0.097000000    -6.667000000    -1.020000000
C    -1.291000000    -6.685000000    -0.729000000
C    -2.161000000    -5.832000000    -1.443000000
H    -1.706000000    -5.279000000    -2.261000000
C    -1.729000000    -7.507000000     0.314000000
H    -1.054000000    -8.213000000     0.789000000
C    -3.051000000    -7.429000000     0.690000000
H    -3.441000000    -8.051000000     1.492000000
C    -3.968000000    -6.655000000    -0.037000000
H    -5.014000000    -6.749000000     0.244000000
C    -3.541000000    -5.900000000    -1.120000000
O    -4.389000000    -5.182000000    -1.897000000
C    -4.773000000    -3.886000000    -1.564000000
C    -5.742000000    -3.212000000    -2.329000000
H    -6.070000000    -3.612000000    -3.285000000
C    -6.148000000    -1.952000000    -2.029000000
O    -6.834000000    -1.170000000    -2.977000000
C    -6.467000000     0.120000000    -3.304000000
C    -5.137000000     0.420000000    -3.634000000
H    -4.427000000    -0.394000000    -3.758000000
C    -7.431000000     1.095000000    -3.108000000
H    -8.417000000     0.858000000    -2.716000000
C    -7.118000000     2.455000000    -3.172000000
H    -7.900000000     3.147000000    -2.871000000
C    -5.818000000     2.775000000    -3.569000000
H    -5.570000000     3.804000000    -3.817000000
C    -4.885000000     1.799000000    -3.843000000
O    -3.622000000     2.156000000    -4.312000000
C    -2.694000000     3.016000000    -3.724000000
C    -1.770000000     3.776000000    -4.435000000
H    -1.834000000     3.690000000    -5.516000000
C    -0.751000000     4.475000000    -3.842000000
O     0.113000000     5.282000000    -4.590000000
C     1.462000000     5.469000000    -4.263000000
C     2.322000000     4.455000000    -3.951000000
H     2.024000000     3.410000000    -3.929000000
C     1.944000000     6.784000000    -4.407000000
H     1.296000000     7.534000000    -4.854000000
C     3.310000000     7.070000000    -4.131000000
H     3.746000000     8.064000000    -4.183000000
C     4.207000000     6.015000000    -3.929000000
H     5.259000000     6.285000000    -3.908000000
C     3.679000000     4.694000000    -3.869000000
O     4.616000000     3.622000000    -3.940000000
C     4.721000000     2.541000000    -2.978000000
C     5.192000000     1.300000000    -3.388000000
H     5.365000000     1.104000000    -4.443000000
C     5.452000000     0.301000000    -2.407000000
O     5.947000000    -0.940000000    -2.856000000
C     6.190000000    -1.941000000    -1.966000000
C     7.220000000    -1.862000000    -1.042000000
H     7.817000000    -0.954000000    -1.012000000
C     7.501000000    -2.871000000    -0.144000000
H     8.303000000    -2.827000000     0.589000000
C     6.702000000    -4.000000000    -0.224000000
H     6.777000000    -4.875000000     0.416000000
C     5.562000000    -4.073000000    -1.034000000
C     5.305000000    -3.030000000    -1.983000000
H     4.507000000    -3.078000000    -2.719000000
C     0.807000000    -2.028000000    -1.657000000
H     1.533000000    -2.817000000    -1.837000000
C     1.074000000    -1.218000000    -0.555000000
H     1.969000000    -1.388000000     0.039000000
C     0.127000000    -0.263000000    -0.222000000
H     0.340000000     0.393000000     0.666000000
C    -1.035000000    -0.082000000    -1.067000000
H    -1.706000000     0.729000000    -0.796000000
C    -1.129000000    -0.871000000    -2.211000000
H    -1.919000000    -0.654000000    -2.926000000
C    -0.259000000    -1.892000000    -2.563000000
C    -0.329000000    -2.666000000    -3.868000000
O    -1.404000000    -2.588000000    -4.450000000
O     0.512000000    -3.409000000    -4.321000000
O     1.469000000    -3.061000000    -7.102000000
H     0.883000000    -3.650000000    -7.579000000
H     1.118000000    -3.044000000    -6.212000000
O    -0.163000000    -1.866000000    -9.636000000
H     0.386000000    -1.298000000   -10.175000000
H     0.081000000    -1.651000000    -8.736000000
O     2.827000000     0.282000000    -5.230000000
H     1.962000000     0.550000000    -4.919000000
H     3.193000000     1.072000000    -5.628000000
O    -0.927000000    -5.847000000    -4.601000000
H    -0.365000000    -5.084000000    -4.462000000
H    -1.739000000    -5.484000000    -4.954000000
O    -6.195000000    -2.321000000    -6.101000000
H    -6.830000000    -2.700000000    -5.493000000
H    -5.363000000    -2.353000000    -5.629000000
O     2.011000000    -0.224000000    -8.326000000
H     2.026000000    -1.021000000    -7.794000000
H     2.829000000     0.224000000    -8.108000000
O     4.759000000    -6.758000000    -4.186000000
H     4.095000000    -6.070000000    -4.156000000
H     4.258000000    -7.574000000    -4.189000000
O     0.824000000    -7.196000000    -6.431000000
H     0.329000000    -6.650000000    -5.820000000
H     0.759000000    -6.737000000    -7.269000000
O     2.857000000    -4.558000000    -4.468000000
H     1.949000000    -4.327000000    -4.273000000
H     3.268000000    -3.730000000    -4.717000000
O    -3.401000000     1.125000000    -7.627000000
H    -3.395000000     1.875000000    -7.032000000
H    -2.969000000     0.426000000    -7.137000000
O     0.121000000     1.547000000    -6.924000000
H     0.777000000     1.121000000    -7.476000000
H     0.251000000     2.483000000    -7.075000000
O    -3.334000000    -2.207000000    -7.949000000
H    -2.874000000    -1.535000000    -7.445000000
H    -3.634000000    -2.835000000    -7.293000000
O    -4.010000000    -6.168000000    -4.829000000
H    -3.936000000    -6.769000000    -5.570000000
H    -4.249000000    -6.726000000    -4.090000000
O     3.730000000    -2.142000000    -6.341000000
H     3.484000000    -1.321000000    -5.916000000
H     2.905000000    -2.616000000    -6.444000000
O    -1.964000000    -0.606000000    -6.309000000
H    -1.158000000    -0.105000000    -6.186000000
H    -1.973000000    -1.227000000    -5.581000000
O    -1.983000000    -8.726000000    -3.884000000
H    -2.799000000    -8.738000000    -3.383000000
H    -1.723000000    -7.805000000    -3.895000000
O     0.239000000    -5.074000000    -8.480000000
H     0.745000000    -5.645000000    -9.059000000
H    -0.557000000    -4.878000000    -8.973000000
O     0.903000000     1.921000000    -2.116000000
H     0.250000000     1.345000000    -1.718000000
H     1.691000000     1.381000000    -2.181000000
O    -3.953000000    -3.327000000    -4.974000000
H    -4.078000000    -4.244000000    -4.731000000
H    -3.003000000    -3.206000000    -4.970000000
