215
-1450.00483
C    -4.652000000    -2.465000000    -1.157000000
H    -5.287000000    -1.584000000    -1.196000000
C    -3.818000000    -2.789000000    -0.059000000
C    -3.074000000    -4.020000000    -0.085000000
H    -2.531000000    -4.302000000     0.813000000
C    -3.616000000    -1.741000000     0.958000000
O    -4.582000000    -0.683000000     0.870000000
H    -2.620000000    -1.298000000     0.813000000
O    -3.748000000    -2.343000000     2.257000000
C    -2.899000000    -1.943000000     3.212000000
C    -1.760000000    -2.672000000     3.467000000
H    -1.639000000    -3.597000000     2.910000000
C    -0.651000000    -2.077000000     4.007000000
O     0.492000000    -2.834000000     4.005000000
C    -0.762000000    -0.849000000     4.670000000
C     0.490000000    -0.355000000     5.413000000
H     0.241000000     0.306000000     6.245000000
C     1.464000000     0.399000000     4.553000000
C     1.236000000     1.776000000     4.328000000
H     0.527000000     2.343000000     4.926000000
H     1.020000000    -1.186000000     5.884000000
C    -1.885000000    -0.132000000     4.548000000
H    -1.912000000     0.813000000     5.084000000
C    -3.012000000    -0.666000000     3.854000000
C    -4.223000000     0.196000000     3.601000000
H    -4.420000000     0.848000000     4.454000000
H    -5.083000000    -0.436000000     3.370000000
C    -3.949000000     1.078000000     2.413000000
C    -3.452000000     2.368000000     2.580000000
H    -3.330000000     2.747000000     3.591000000
C    -4.192000000     0.599000000     1.125000000
C    -4.041000000     1.426000000     0.016000000
H    -4.061000000     0.945000000    -0.959000000
C    -3.722000000     2.752000000     0.141000000
O    -3.444000000     3.497000000    -0.989000000
C    -2.093000000     3.534000000    -1.507000000
C    -2.049000000     3.304000000    -3.018000000
C    -1.123000000     4.010000000    -3.801000000
H    -0.365000000     4.663000000    -3.375000000
C    -2.879000000     2.328000000    -3.654000000
H    -3.555000000     1.655000000    -3.133000000
O    -1.444000000     4.763000000    -1.020000000
H    -1.470000000     2.790000000    -0.987000000
C    -3.300000000     3.200000000     1.404000000
C    -2.695000000     4.577000000     1.607000000
H    -3.069000000     5.150000000     2.459000000
H    -3.112000000     5.241000000     0.847000000
C    -1.237000000     4.615000000     1.415000000
C    -0.410000000     4.555000000     2.508000000
H    -0.839000000     4.483000000     3.505000000
C    -0.678000000     4.663000000     0.141000000
C     0.682000000     4.611000000    -0.045000000
H     1.086000000     4.672000000    -1.052000000
C     1.512000000     4.413000000     1.006000000
O     2.856000000     4.171000000     0.786000000
C     3.290000000     2.813000000     0.654000000
C     4.107000000     2.602000000    -0.565000000
C     3.684000000     3.022000000    -1.818000000
H     2.834000000     3.697000000    -1.874000000
C     5.102000000     1.603000000    -0.390000000
H     5.447000000     1.273000000     0.587000000
O     3.947000000     2.496000000     1.896000000
H     2.353000000     2.241000000     0.584000000
C     0.971000000     4.381000000     2.298000000
C     1.930000000     4.111000000     3.462000000
H     1.563000000     4.614000000     4.359000000
H     2.865000000     4.664000000     3.352000000
C     2.143000000     2.578000000     3.586000000
C     3.152000000     1.891000000     2.947000000
C     3.292000000     0.520000000     2.990000000
H     4.036000000    -0.020000000     2.410000000
C     2.436000000    -0.242000000     3.792000000
O     2.525000000    -1.665000000     3.745000000
C     1.460000000    -2.356000000     3.042000000
H     1.067000000    -1.612000000     2.333000000
C     2.005000000    -3.485000000     2.242000000
C     1.440000000    -4.740000000     2.215000000
H     0.479000000    -4.877000000     2.704000000
C     3.260000000    -3.307000000     1.552000000
H     3.740000000    -2.332000000     1.539000000
C     3.846000000    -4.375000000     0.938000000
O     5.067000000    -4.358000000     0.325000000
C     3.232000000    -5.640000000     0.945000000
H     3.833000000    -6.440000000     0.520000000
C     1.957000000    -5.797000000     1.533000000
O     1.343000000    -7.049000000     1.459000000
C     0.026000000    -7.238000000     1.184000000
C    -0.532000000    -6.601000000     0.104000000
H     0.045000000    -5.949000000    -0.547000000
C    -0.699000000    -8.172000000     1.913000000
H    -0.285000000    -8.743000000     2.741000000
C    -2.094000000    -8.291000000     1.649000000
H    -2.656000000    -9.067000000     2.163000000
C    -2.694000000    -7.477000000     0.666000000
H    -3.747000000    -7.589000000     0.420000000
C    -1.889000000    -6.695000000    -0.179000000
O    -2.513000000    -6.039000000    -1.257000000
C    -3.086000000    -4.802000000    -1.155000000
C    -3.866000000    -4.479000000    -2.272000000
H    -3.924000000    -5.099000000    -3.162000000
C    -4.537000000    -3.260000000    -2.299000000
O    -5.178000000    -2.959000000    -3.574000000
C    -5.426000000    -1.627000000    -3.908000000
C    -4.396000000    -0.978000000    -4.572000000
H    -3.509000000    -1.549000000    -4.836000000
C    -6.525000000    -0.942000000    -3.474000000
H    -7.268000000    -1.506000000    -2.916000000
C    -6.657000000     0.399000000    -3.762000000
H    -7.506000000     0.960000000    -3.381000000
C    -5.771000000     1.054000000    -4.621000000
H    -5.875000000     2.117000000    -4.820000000
C    -4.532000000     0.393000000    -4.926000000
O    -3.467000000     1.040000000    -5.600000000
C    -2.780000000     2.089000000    -5.020000000
C    -1.825000000     2.774000000    -5.790000000
H    -1.777000000     2.601000000    -6.862000000
C    -0.961000000     3.718000000    -5.167000000
O    -0.014000000     4.424000000    -5.933000000
C     1.230000000     4.646000000    -5.447000000
C     2.078000000     3.570000000    -5.220000000
H     1.731000000     2.569000000    -5.464000000
C     1.721000000     5.919000000    -5.099000000
H     1.072000000     6.791000000    -5.115000000
C     3.043000000     6.173000000    -4.604000000
H     3.306000000     7.124000000    -4.149000000
C     3.825000000     5.077000000    -4.301000000
H     4.832000000     5.247000000    -3.928000000
C     3.375000000     3.791000000    -4.633000000
O     3.984000000     2.711000000    -4.209000000
C     4.377000000     2.417000000    -2.887000000
C     5.357000000     1.379000000    -2.726000000
H     5.883000000     1.174000000    -3.655000000
C     5.713000000     0.994000000    -1.447000000
O     6.735000000     0.014000000    -1.287000000
C     6.753000000    -1.106000000    -0.356000000
C     7.689000000    -1.073000000     0.660000000
H     8.312000000    -0.186000000     0.738000000
C     7.892000000    -2.240000000     1.353000000
H     8.786000000    -2.258000000     1.970000000
C     7.031000000    -3.283000000     1.313000000
H     7.194000000    -4.192000000     1.887000000
C     5.965000000    -3.260000000     0.379000000
C     5.785000000    -2.156000000    -0.459000000
H     4.984000000    -2.119000000    -1.193000000
C     0.888000000    -2.404000000    -1.042000000
H     1.830000000    -2.844000000    -0.724000000
C     0.465000000    -1.251000000    -0.328000000
H     1.005000000    -0.816000000     0.508000000
C    -0.650000000    -0.508000000    -0.723000000
H    -0.952000000     0.369000000    -0.067000000
C    -1.411000000    -0.982000000    -1.794000000
H    -2.340000000    -0.493000000    -2.075000000
C    -0.989000000    -2.178000000    -2.410000000
H    -1.578000000    -2.580000000    -3.230000000
C     0.112000000    -2.919000000    -2.053000000
C     0.644000000    -4.133000000    -2.752000000
O     0.265000000    -4.296000000    -3.876000000
O     1.711000000    -4.716000000    -2.398000000
O     2.140000000    -3.530000000    -5.426000000
H     1.324000000    -3.514000000    -4.925000000
H     2.759000000    -3.034000000    -4.891000000
O    -0.996000000    -6.310000000    -4.858000000
H    -0.473000000    -5.624000000    -4.443000000
H    -0.992000000    -7.029000000    -4.226000000
O     0.053000000    -8.345000000    -3.072000000
H     0.959000000    -8.215000000    -2.792000000
H    -0.305000000    -8.970000000    -2.441000000
O     5.568000000    -6.352000000    -4.496000000
H     5.177000000    -5.903000000    -3.746000000
H     5.816000000    -5.646000000    -5.094000000
O     4.284000000    -5.134000000    -2.449000000
H     4.574000000    -5.099000000    -1.538000000
H     3.330000000    -5.072000000    -2.399000000
O    -1.347000000    -2.988000000    -8.611000000
H    -0.448000000    -3.038000000    -8.287000000
H    -1.887000000    -3.015000000    -7.821000000
O    -1.956000000    -3.351000000    -5.932000000
H    -1.320000000    -3.865000000    -5.434000000
H    -2.782000000    -3.823000000    -5.824000000
O     2.044000000    -6.367000000    -4.771000000
H     2.275000000    -5.807000000    -5.511000000
H     1.601000000    -5.782000000    -4.156000000
O     3.690000000    -0.395000000    -6.283000000
H     3.312000000    -0.289000000    -5.410000000
H     3.679000000    -1.339000000    -6.437000000
O     0.693000000    -8.882000000    -6.144000000
H     1.103000000    -8.023000000    -6.047000000
H    -0.019000000    -8.882000000    -5.505000000
O     3.021000000   -10.164000000    -1.253000000
H     3.718000000    -9.862000000    -0.670000000
H     2.860000000    -9.424000000    -1.838000000
O     4.116000000    -8.414000000    -5.611000000
H     3.606000000    -8.285000000    -6.411000000
H     4.449000000    -7.543000000    -5.397000000
O     1.403000000    -3.476000000    -7.906000000
H     1.757000000    -3.454000000    -7.017000000
H     2.132000000    -3.782000000    -8.447000000
O     4.324000000    -2.560000000    -3.985000000
H     4.303000000    -3.468000000    -3.683000000
H     5.230000000    -2.283000000    -3.848000000
O    -3.419000000    -7.131000000    -6.151000000
H    -2.536000000    -7.201000000    -5.789000000
H    -3.542000000    -6.195000000    -6.303000000
O     3.153000000    -7.778000000    -2.673000000
H     3.062000000    -7.511000000    -3.588000000
H     3.427000000    -6.982000000    -2.217000000
O    -0.136000000    -5.626000000    -8.988000000
H     0.061000000    -5.439000000    -9.906000000
H     0.049000000    -4.805000000    -8.532000000
O     0.959000000    -0.391000000    -6.464000000
H     1.803000000    -0.180000000    -6.862000000
H     1.184000000    -0.839000000    -5.649000000
O     1.814000000    -1.135000000    -4.056000000
H     2.341000000    -1.923000000    -3.925000000
H     1.586000000    -0.850000000    -3.171000000
