215
-1447.70567
C     5.199000000    -2.710000000    -0.555000000
H     4.543000000    -3.576000000    -0.563000000
C     5.157000000    -1.695000000     0.433000000
C     5.928000000    -0.529000000     0.270000000
H     5.826000000     0.286000000     0.982000000
C     4.013000000    -1.746000000     1.471000000
O     3.672000000    -3.126000000     1.786000000
H     3.144000000    -1.283000000     0.980000000
O     4.339000000    -1.050000000     2.725000000
C     3.359000000    -0.301000000     3.401000000
C     3.281000000     1.056000000     3.103000000
H     4.016000000     1.449000000     2.406000000
C     2.302000000     1.859000000     3.747000000
O     2.175000000     3.122000000     3.275000000
C     1.443000000     1.288000000     4.698000000
C     0.249000000     2.152000000     5.245000000
H    -0.137000000     1.802000000     6.204000000
C    -0.958000000     2.111000000     4.312000000
C    -1.953000000     1.164000000     4.467000000
H    -1.936000000     0.470000000     5.303000000
H     0.514000000     3.205000000     5.361000000
C     1.534000000    -0.091000000     4.943000000
H     0.869000000    -0.629000000     5.614000000
C     2.467000000    -0.929000000     4.244000000
C     2.476000000    -2.439000000     4.436000000
H     2.192000000    -2.694000000     5.459000000
H     3.527000000    -2.729000000     4.373000000
C     1.684000000    -3.213000000     3.383000000
C     0.278000000    -3.405000000     3.482000000
H    -0.258000000    -3.243000000     4.414000000
C     2.340000000    -3.424000000     2.124000000
C     1.531000000    -3.911000000     1.028000000
H     2.036000000    -4.092000000     0.083000000
C     0.226000000    -4.239000000     1.237000000
O    -0.484000000    -4.632000000     0.099000000
C    -1.307000000    -3.587000000    -0.444000000
C    -1.369000000    -3.474000000    -1.988000000
C    -2.561000000    -3.167000000    -2.638000000
H    -3.494000000    -3.101000000    -2.084000000
C    -0.160000000    -3.466000000    -2.661000000
H     0.738000000    -3.529000000    -2.053000000
O    -2.730000000    -3.791000000    -0.043000000
H    -1.048000000    -2.602000000    -0.029000000
C    -0.444000000    -3.928000000     2.432000000
C    -1.861000000    -4.370000000     2.675000000
H    -1.989000000    -4.701000000     3.708000000
H    -2.003000000    -5.308000000     2.135000000
C    -2.797000000    -3.274000000     2.265000000
C    -3.001000000    -2.175000000     3.192000000
H    -2.587000000    -2.263000000     4.193000000
C    -3.231000000    -3.043000000     0.972000000
C    -4.012000000    -1.953000000     0.694000000
H    -4.308000000    -1.777000000    -0.337000000
C    -4.363000000    -1.018000000     1.626000000
O    -5.050000000     0.069000000     1.077000000
C    -4.242000000     1.168000000     0.637000000
C    -4.767000000     1.661000000    -0.771000000
C    -5.712000000     0.919000000    -1.508000000
H    -5.972000000    -0.073000000    -1.148000000
C    -4.245000000     2.875000000    -1.218000000
H    -3.501000000     3.430000000    -0.653000000
O    -4.302000000     2.168000000     1.714000000
H    -3.204000000     0.831000000     0.501000000
C    -3.862000000    -1.101000000     2.896000000
C    -4.112000000     0.068000000     3.875000000
H    -4.046000000    -0.247000000     4.918000000
H    -5.134000000     0.420000000     3.720000000
C    -3.073000000     1.148000000     3.600000000
C    -3.242000000     2.177000000     2.641000000
C    -2.242000000     3.121000000     2.443000000
H    -2.287000000     3.850000000     1.638000000
C    -1.083000000     3.029000000     3.228000000
O    -0.047000000     3.769000000     2.755000000
C     1.094000000     3.148000000     2.234000000
H     0.771000000     2.114000000     2.042000000
C     1.635000000     3.865000000     1.068000000
C     2.980000000     4.040000000     0.724000000
H     3.709000000     3.694000000     1.453000000
C     0.697000000     4.244000000     0.105000000
H    -0.353000000     4.244000000     0.387000000
C     1.091000000     4.847000000    -1.071000000
O     0.228000000     5.406000000    -2.025000000
C     2.425000000     4.930000000    -1.428000000
H     2.715000000     5.434000000    -2.346000000
C     3.373000000     4.484000000    -0.565000000
O     4.686000000     4.469000000    -0.949000000
C     5.630000000     3.761000000    -0.326000000
C     6.083000000     2.645000000    -1.010000000
H     5.656000000     2.375000000    -1.972000000
C     6.339000000     4.182000000     0.786000000
H     6.150000000     5.158000000     1.226000000
C     7.340000000     3.451000000     1.375000000
H     7.750000000     3.719000000     2.345000000
C     7.803000000     2.233000000     0.795000000
H     8.580000000     1.649000000     1.281000000
C     7.199000000     1.946000000    -0.442000000
O     7.493000000     0.735000000    -1.096000000
C     6.742000000    -0.427000000    -0.850000000
C     6.814000000    -1.467000000    -1.797000000
H     7.473000000    -1.416000000    -2.659000000
C     5.906000000    -2.505000000    -1.721000000
O     5.796000000    -3.412000000    -2.809000000
C     4.623000000    -3.944000000    -3.247000000
C     3.529000000    -3.232000000    -3.732000000
H     3.510000000    -2.145000000    -3.714000000
C     4.528000000    -5.353000000    -3.205000000
H     5.438000000    -5.875000000    -2.920000000
C     3.385000000    -6.020000000    -3.697000000
H     3.405000000    -7.102000000    -3.791000000
C     2.245000000    -5.276000000    -4.123000000
H     1.295000000    -5.724000000    -4.403000000
C     2.328000000    -3.899000000    -4.172000000
O     1.120000000    -3.232000000    -4.620000000
C    -0.103000000    -3.257000000    -3.982000000
C    -1.278000000    -2.992000000    -4.668000000
H    -1.235000000    -2.871000000    -5.747000000
C    -2.520000000    -3.021000000    -4.015000000
O    -3.569000000    -2.664000000    -4.752000000
C    -4.887000000    -2.335000000    -4.408000000
C    -5.281000000    -1.036000000    -4.019000000
H    -4.462000000    -0.324000000    -3.958000000
C    -5.858000000    -3.338000000    -4.408000000
H    -5.536000000    -4.331000000    -4.710000000
C    -7.190000000    -3.038000000    -4.129000000
H    -7.953000000    -3.811000000    -4.193000000
C    -7.589000000    -1.708000000    -3.875000000
H    -8.623000000    -1.403000000    -3.738000000
C    -6.631000000    -0.704000000    -3.757000000
O    -6.912000000     0.596000000    -3.469000000
C    -6.078000000     1.363000000    -2.734000000
C    -5.595000000     2.621000000    -3.159000000
H    -5.996000000     3.097000000    -4.051000000
C    -4.692000000     3.365000000    -2.436000000
O    -4.409000000     4.601000000    -2.831000000
C    -3.463000000     5.390000000    -2.209000000
C    -3.762000000     6.444000000    -1.335000000
H    -4.805000000     6.707000000    -1.178000000
C    -2.751000000     7.117000000    -0.709000000
H    -3.027000000     8.044000000    -0.215000000
C    -1.396000000     6.742000000    -0.951000000
H    -0.557000000     7.209000000    -0.442000000
C    -1.072000000     5.678000000    -1.783000000
C    -2.107000000     4.952000000    -2.333000000
H    -1.876000000     4.070000000    -2.924000000
C    -0.774000000    -0.027000000    -3.100000000
H    -1.237000000    -0.053000000    -4.083000000
C    -1.557000000    -0.075000000    -1.926000000
H    -2.639000000     0.033000000    -1.929000000
C    -0.930000000    -0.226000000    -0.671000000
H    -1.578000000    -0.421000000     0.150000000
C     0.454000000    -0.241000000    -0.578000000
H     0.939000000    -0.242000000     0.395000000
C     1.206000000    -0.168000000    -1.735000000
H     2.290000000    -0.114000000    -1.797000000
C     0.648000000    -0.185000000    -3.010000000
C     1.480000000     0.043000000    -4.182000000
O     2.677000000    -0.039000000    -4.150000000
O     0.995000000     0.249000000    -5.295000000
O    -2.826000000     1.860000000    -7.879000000
H    -2.503000000     1.269000000    -8.559000000
H    -2.961000000     2.694000000    -8.330000000
O     5.428000000    -0.580000000    -4.889000000
H     5.476000000    -1.536000000    -4.900000000
H     4.497000000    -0.388000000    -4.777000000
O     0.638000000     2.842000000    -9.133000000
H     0.551000000     3.767000000    -8.904000000
H     1.537000000     2.619000000    -8.892000000
O     3.297000000     2.621000000    -4.081000000
H     2.749000000     1.975000000    -3.635000000
H     3.326000000     2.324000000    -4.990000000
O     0.596000000    -3.455000000    -9.393000000
H     0.154000000    -2.701000000    -9.002000000
H     0.012000000    -3.737000000   -10.097000000
O     3.688000000     5.134000000    -6.480000000
H     3.050000000     4.649000000    -5.956000000
H     3.750000000     5.988000000    -6.053000000
O    -1.627000000     4.449000000    -6.665000000
H    -1.171000000     3.868000000    -6.057000000
H    -1.107000000     4.411000000    -7.468000000
O     5.129000000     4.910000000    -3.839000000
H     5.838000000     4.437000000    -4.275000000
H     4.455000000     4.246000000    -3.691000000
O     0.103000000    -0.070000000    -9.863000000
H     0.054000000     0.884000000    -9.920000000
H    -0.121000000    -0.267000000    -8.953000000
O     3.281000000    -1.922000000    -6.676000000
H     2.416000000    -1.676000000    -6.349000000
H     3.102000000    -2.517000000    -7.404000000
O     5.739000000    -4.523000000    -6.501000000
H     5.579000000    -4.595000000    -7.442000000
H     4.935000000    -4.140000000    -6.151000000
O     3.326000000     3.002000000    -8.775000000
H     3.802000000     3.580000000    -8.178000000
H     3.254000000     2.174000000    -8.300000000
O     0.079000000     2.915000000    -4.854000000
H     0.075000000     2.884000000    -3.897000000
H     0.474000000     2.084000000    -5.118000000
O     2.880000000    -0.157000000    -9.525000000
H     1.949000000    -0.077000000    -9.319000000
H     2.901000000    -0.419000000   -10.445000000
O     7.269000000     1.047000000    -6.272000000
H     6.496000000     1.016000000    -5.708000000
H     7.393000000     1.978000000    -6.459000000
O    -0.013000000     6.225000000    -4.838000000
H    -0.083000000     5.354000000    -5.228000000
H     0.924000000     6.343000000    -4.680000000
O     5.792000000    -1.486000000    -7.858000000
H     5.932000000    -0.981000000    -7.057000000
H     4.932000000    -1.889000000    -7.740000000
O    -0.372000000    -0.088000000    -7.351000000
H     0.167000000     0.065000000    -6.575000000
H    -1.201000000     0.349000000    -7.158000000
O     3.321000000     1.147000000    -6.586000000
H     3.837000000     0.350000000    -6.706000000
H     2.653000000     0.906000000    -5.944000000
