215
-1476.58157
C    -4.836000000    -2.157000000    -1.093000000
H    -5.628000000    -1.417000000    -1.020000000
C    -3.990000000    -2.580000000    -0.090000000
C    -3.151000000    -3.685000000    -0.196000000
H    -2.431000000    -3.855000000     0.600000000
C    -3.820000000    -1.632000000     1.136000000
O    -4.778000000    -0.552000000     1.152000000
H    -2.866000000    -1.172000000     0.839000000
O    -3.859000000    -2.276000000     2.426000000
C    -2.901000000    -1.889000000     3.394000000
C    -1.732000000    -2.628000000     3.401000000
H    -1.642000000    -3.532000000     2.804000000
C    -0.604000000    -2.248000000     4.178000000
O     0.511000000    -2.959000000     4.067000000
C    -0.625000000    -1.018000000     4.823000000
C     0.575000000    -0.443000000     5.483000000
H     0.233000000     0.150000000     6.334000000
C     1.495000000     0.266000000     4.529000000
C     1.416000000     1.620000000     4.393000000
H     0.634000000     2.156000000     4.924000000
H     1.141000000    -1.264000000     5.928000000
C    -1.799000000    -0.226000000     4.742000000
H    -1.810000000     0.763000000     5.192000000
C    -2.889000000    -0.643000000     4.005000000
C    -4.029000000     0.305000000     3.792000000
H    -4.114000000     0.977000000     4.649000000
H    -4.954000000    -0.273000000     3.739000000
C    -3.806000000     1.114000000     2.571000000
C    -3.302000000     2.404000000     2.651000000
H    -2.932000000     2.739000000     3.617000000
C    -4.275000000     0.671000000     1.306000000
C    -4.074000000     1.484000000     0.194000000
H    -4.419000000     1.119000000    -0.770000000
C    -3.435000000     2.717000000     0.302000000
O    -3.211000000     3.399000000    -0.798000000
C    -1.895000000     3.437000000    -1.328000000
C    -2.014000000     3.316000000    -2.833000000
C    -0.954000000     3.808000000    -3.583000000
H    -0.275000000     4.547000000    -3.165000000
C    -3.055000000     2.558000000    -3.405000000
H    -3.823000000     2.076000000    -2.806000000
O    -1.256000000     4.644000000    -0.862000000
H    -1.341000000     2.524000000    -1.065000000
C    -3.152000000     3.238000000     1.535000000
C    -2.500000000     4.612000000     1.699000000
H    -2.767000000     5.133000000     2.621000000
H    -3.023000000     5.218000000     0.956000000
C    -1.022000000     4.570000000     1.534000000
C    -0.211000000     4.300000000     2.607000000
H    -0.589000000     4.082000000     3.603000000
C    -0.526000000     4.528000000     0.300000000
C     0.840000000     4.356000000     0.029000000
H     1.174000000     4.387000000    -1.004000000
C     1.723000000     4.155000000     1.110000000
O     3.071000000     3.843000000     0.838000000
C     3.401000000     2.450000000     0.767000000
C     4.184000000     2.161000000    -0.494000000
C     4.033000000     2.843000000    -1.711000000
H     3.411000000     3.733000000    -1.749000000
C     4.785000000     0.901000000    -0.543000000
H     4.774000000     0.240000000     0.320000000
O     4.135000000     2.191000000     1.997000000
H     2.435000000     1.925000000     0.738000000
C     1.180000000     4.196000000     2.403000000
C     2.141000000     3.819000000     3.591000000
H     1.647000000     4.152000000     4.506000000
H     3.083000000     4.370000000     3.585000000
C     2.360000000     2.339000000     3.684000000
C     3.352000000     1.624000000     3.043000000
C     3.391000000     0.198000000     3.053000000
H     4.129000000    -0.307000000     2.436000000
C     2.538000000    -0.468000000     3.931000000
O     2.483000000    -1.827000000     3.979000000
C     1.536000000    -2.539000000     3.208000000
H     1.069000000    -1.875000000     2.466000000
C     2.139000000    -3.650000000     2.386000000
C     1.322000000    -4.756000000     2.049000000
H     0.334000000    -4.921000000     2.472000000
C     3.464000000    -3.494000000     1.992000000
H     4.011000000    -2.571000000     2.167000000
C     4.017000000    -4.586000000     1.343000000
O     5.341000000    -4.640000000     1.023000000
C     3.313000000    -5.744000000     1.055000000
H     3.844000000    -6.580000000     0.606000000
C     1.932000000    -5.794000000     1.366000000
O     1.232000000    -6.998000000     1.114000000
C    -0.069000000    -7.069000000     0.690000000
C    -0.549000000    -6.073000000    -0.200000000
H    -0.103000000    -5.085000000    -0.278000000
C    -0.842000000    -8.245000000     0.886000000
H    -0.427000000    -8.962000000     1.590000000
C    -2.134000000    -8.355000000     0.431000000
H    -2.720000000    -9.255000000     0.598000000
C    -2.648000000    -7.321000000    -0.398000000
H    -3.620000000    -7.459000000    -0.866000000
C    -1.799000000    -6.227000000    -0.727000000
O    -2.304000000    -5.369000000    -1.640000000
C    -3.218000000    -4.380000000    -1.336000000
C    -3.953000000    -3.933000000    -2.409000000
H    -4.022000000    -4.485000000    -3.343000000
C    -4.770000000    -2.847000000    -2.311000000
O    -5.581000000    -2.447000000    -3.257000000
C    -5.681000000    -1.134000000    -3.712000000
C    -4.609000000    -0.430000000    -4.312000000
H    -3.639000000    -0.919000000    -4.345000000
C    -6.909000000    -0.533000000    -3.545000000
H    -7.679000000    -1.117000000    -3.046000000
C    -7.093000000     0.843000000    -3.799000000
H    -7.962000000     1.274000000    -3.309000000
C    -6.066000000     1.563000000    -4.436000000
H    -6.169000000     2.617000000    -4.677000000
C    -4.919000000     0.848000000    -4.828000000
O    -3.945000000     1.599000000    -5.420000000
C    -2.987000000     2.326000000    -4.784000000
C    -2.039000000     2.954000000    -5.561000000
H    -2.095000000     2.869000000    -6.643000000
C    -0.992000000     3.668000000    -5.005000000
O     0.022000000     4.303000000    -5.738000000
C     1.290000000     4.634000000    -5.266000000
C     2.137000000     3.694000000    -4.757000000
H     1.864000000     2.642000000    -4.753000000
C     1.729000000     5.970000000    -5.356000000
H     1.095000000     6.775000000    -5.720000000
C     3.044000000     6.318000000    -4.904000000
H     3.317000000     7.367000000    -4.986000000
C     3.915000000     5.284000000    -4.437000000
H     4.976000000     5.496000000    -4.329000000
C     3.433000000     3.985000000    -4.344000000
O     4.424000000     3.024000000    -4.067000000
C     4.580000000     2.324000000    -2.870000000
C     5.282000000     1.094000000    -2.834000000
H     5.602000000     0.657000000    -3.776000000
C     5.339000000     0.365000000    -1.700000000
O     5.967000000    -0.858000000    -1.785000000
C     6.400000000    -1.621000000    -0.718000000
C     7.524000000    -1.221000000     0.074000000
H     8.041000000    -0.310000000    -0.214000000
C     7.920000000    -2.024000000     1.106000000
H     8.660000000    -1.579000000     1.766000000
C     7.290000000    -3.231000000     1.357000000
H     7.534000000    -3.809000000     2.244000000
C     6.141000000    -3.609000000     0.604000000
C     5.715000000    -2.753000000    -0.391000000
H     4.824000000    -3.022000000    -0.953000000
C     1.689000000    -1.524000000    -0.366000000
H     2.676000000    -1.958000000    -0.230000000
C     1.252000000    -0.443000000     0.379000000
H     1.903000000     0.032000000     1.109000000
C    -0.008000000     0.078000000     0.123000000
H    -0.397000000     1.008000000     0.645000000
C    -0.841000000    -0.414000000    -0.918000000
H    -1.819000000     0.034000000    -1.073000000
C    -0.379000000    -1.526000000    -1.697000000
H    -0.946000000    -1.939000000    -2.527000000
C     0.916000000    -2.033000000    -1.396000000
C     1.444000000    -3.263000000    -2.163000000
O     0.977000000    -3.467000000    -3.245000000
O     2.158000000    -4.084000000    -1.566000000
O     0.820000000    -2.195000000    -5.573000000
H     0.744000000    -2.821000000    -4.853000000
H     1.609000000    -1.691000000    -5.370000000
O    -1.204000000    -4.298000000    -4.472000000
H    -0.364000000    -4.237000000    -4.017000000
H    -1.818000000    -4.598000000    -3.802000000
O     5.961000000    -6.118000000    -4.814000000
H     5.421000000    -5.800000000    -4.091000000
H     6.856000000    -6.087000000    -4.476000000
O     4.345000000    -4.998000000    -2.493000000
H     4.842000000    -4.928000000    -1.677000000
H     3.497000000    -4.603000000    -2.292000000
O    -1.847000000    -2.348000000    -6.691000000
H    -1.579000000    -2.942000000    -5.990000000
H    -1.163000000    -1.678000000    -6.713000000
O     1.362000000    -5.759000000    -4.741000000
H     1.701000000    -5.468000000    -5.588000000
H     1.217000000    -4.951000000    -4.250000000
O     1.802000000     0.818000000    -7.315000000
H     1.189000000     0.847000000    -6.580000000
H     2.446000000     1.498000000    -7.116000000
O     3.616000000    -1.187000000    -5.400000000
H     3.241000000    -1.409000000    -6.252000000
H     4.136000000    -1.954000000    -5.160000000
O     0.493000000    -8.515000000    -5.398000000
H     0.695000000    -7.606000000    -5.177000000
H    -0.242000000    -8.742000000    -4.829000000
O     0.661000000    -9.668000000    -1.480000000
H     0.904000000    -8.829000000    -1.872000000
H     1.251000000    -9.764000000    -0.733000000
O     0.953000000    -3.897000000    -7.743000000
H     0.777000000    -3.235000000    -7.073000000
H     1.885000000    -3.797000000    -7.938000000
O     5.135000000    -3.243000000    -4.618000000
H     5.216000000    -3.780000000    -3.830000000
H     5.945000000    -2.733000000    -4.644000000
O     3.325000000    -9.230000000    -4.732000000
H     3.323000000    -8.894000000    -5.629000000
H     2.834000000    -8.578000000    -4.231000000
O     2.011000000    -7.061000000    -2.467000000
H     2.408000000    -6.328000000    -1.996000000
H     1.732000000    -6.686000000    -3.302000000
O    -1.676000000    -6.044000000    -6.679000000
H    -1.045000000    -5.916000000    -5.971000000
H    -1.512000000    -5.317000000    -7.280000000
O    -0.032000000     0.515000000    -5.125000000
H    -0.051000000     0.666000000    -4.180000000
H     0.378000000    -0.344000000    -5.222000000
O     1.198000000     1.273000000    -2.332000000
H     2.121000000     1.060000000    -2.468000000
H     0.894000000     0.626000000    -1.696000000
O     3.305000000    -2.461000000    -7.874000000
H     2.924000000    -1.973000000    -8.605000000
H     3.954000000    -3.035000000    -8.282000000
O     3.598000000    -5.247000000    -6.260000000
H     4.217000000    -5.976000000    -6.299000000
H     4.021000000    -4.603000000    -5.693000000
