215
-1444.59532
C    -4.309000000    -2.076000000    -1.819000000
H    -4.733000000    -1.110000000    -2.083000000
C    -3.989000000    -2.507000000    -0.512000000
C    -3.245000000    -3.668000000    -0.350000000
H    -2.709000000    -3.911000000     0.564000000
C    -3.927000000    -1.543000000     0.642000000
O    -4.949000000    -0.574000000     0.486000000
H    -2.924000000    -1.092000000     0.667000000
O    -4.010000000    -2.240000000     1.998000000
C    -3.279000000    -1.668000000     3.045000000
C    -2.136000000    -2.419000000     3.289000000
H    -1.991000000    -3.386000000     2.814000000
C    -1.199000000    -1.977000000     4.218000000
O    -0.049000000    -2.736000000     4.358000000
C    -1.295000000    -0.753000000     4.819000000
C    -0.153000000    -0.145000000     5.650000000
H    -0.569000000     0.479000000     6.444000000
C     0.883000000     0.605000000     4.793000000
C     0.798000000     1.998000000     4.542000000
H     0.057000000     2.657000000     4.989000000
H     0.400000000    -0.846000000     6.279000000
C    -2.374000000     0.084000000     4.510000000
H    -2.481000000     1.115000000     4.837000000
C    -3.363000000    -0.361000000     3.631000000
C    -4.585000000     0.530000000     3.311000000
H    -4.796000000     1.276000000     4.079000000
H    -5.504000000    -0.057000000     3.374000000
C    -4.305000000     1.281000000     1.986000000
C    -3.619000000     2.543000000     2.135000000
H    -3.461000000     2.796000000     3.180000000
C    -4.598000000     0.753000000     0.679000000
C    -4.369000000     1.591000000    -0.407000000
H    -4.627000000     1.195000000    -1.386000000
C    -3.645000000     2.777000000    -0.260000000
O    -3.209000000     3.456000000    -1.347000000
C    -1.784000000     3.321000000    -1.717000000
C    -1.615000000     2.961000000    -3.092000000
C    -0.311000000     3.079000000    -3.626000000
H     0.535000000     3.377000000    -3.011000000
C    -2.627000000     2.398000000    -3.823000000
H    -3.623000000     2.265000000    -3.410000000
O    -1.039000000     4.470000000    -1.375000000
H    -1.260000000     2.514000000    -1.184000000
C    -3.283000000     3.273000000     0.992000000
C    -2.746000000     4.639000000     1.150000000
H    -3.199000000     4.974000000     2.085000000
H    -3.034000000     5.410000000     0.432000000
C    -1.184000000     4.723000000     1.055000000
C    -0.454000000     4.655000000     2.239000000
H    -1.006000000     4.705000000     3.174000000
C    -0.450000000     4.647000000    -0.168000000
C     0.941000000     4.530000000    -0.220000000
H     1.452000000     4.293000000    -1.150000000
C     1.623000000     4.412000000     1.001000000
O     2.954000000     3.968000000     0.913000000
C     3.287000000     2.575000000     1.016000000
C     4.228000000     2.200000000    -0.098000000
C     4.274000000     2.925000000    -1.284000000
H     3.666000000     3.802000000    -1.494000000
C     5.087000000     1.132000000     0.047000000
H     4.997000000     0.535000000     0.951000000
O     3.734000000     2.304000000     2.356000000
H     2.343000000     2.016000000     0.935000000
C     0.960000000     4.431000000     2.267000000
C     1.714000000     4.083000000     3.530000000
H     1.134000000     4.507000000     4.352000000
H     2.677000000     4.598000000     3.525000000
C     1.766000000     2.592000000     3.751000000
C     2.836000000     1.789000000     3.240000000
C     2.896000000     0.382000000     3.453000000
H     3.740000000    -0.168000000     3.043000000
C     1.864000000    -0.170000000     4.139000000
O     1.956000000    -1.523000000     4.274000000
C     1.030000000    -2.355000000     3.487000000
H     0.741000000    -1.742000000     2.620000000
C     1.702000000    -3.564000000     2.910000000
C     1.116000000    -4.841000000     2.924000000
H     0.191000000    -5.029000000     3.463000000
C     2.856000000    -3.331000000     2.131000000
H     3.291000000    -2.336000000     2.088000000
C     3.504000000    -4.423000000     1.542000000
O     4.764000000    -4.242000000     0.876000000
C     2.927000000    -5.681000000     1.481000000
H     3.366000000    -6.506000000     0.926000000
C     1.732000000    -5.860000000     2.190000000
O     1.100000000    -7.092000000     1.972000000
C    -0.170000000    -7.199000000     1.356000000
C    -0.501000000    -6.312000000     0.391000000
H     0.319000000    -5.726000000    -0.015000000
C    -1.082000000    -7.978000000     1.966000000
H    -0.843000000    -8.632000000     2.801000000
C    -2.373000000    -8.007000000     1.484000000
H    -3.206000000    -8.526000000     1.952000000
C    -2.687000000    -7.213000000     0.428000000
H    -3.701000000    -7.177000000     0.037000000
C    -1.783000000    -6.324000000    -0.117000000
O    -2.112000000    -5.607000000    -1.270000000
C    -2.973000000    -4.482000000    -1.393000000
C    -3.438000000    -4.179000000    -2.597000000
H    -3.128000000    -4.834000000    -3.408000000
C    -4.157000000    -2.984000000    -2.889000000
O    -4.569000000    -2.751000000    -4.191000000
C    -4.962000000    -1.468000000    -4.627000000
C    -3.999000000    -0.594000000    -5.076000000
H    -2.948000000    -0.741000000    -4.840000000
C    -6.304000000    -1.271000000    -4.845000000
H    -7.085000000    -2.004000000    -4.659000000
C    -6.676000000    -0.080000000    -5.369000000
H    -7.729000000     0.094000000    -5.575000000
C    -5.747000000     0.904000000    -5.760000000
H    -6.020000000     1.821000000    -6.277000000
C    -4.388000000     0.605000000    -5.593000000
O    -3.482000000     1.630000000    -5.961000000
C    -2.414000000     2.080000000    -5.120000000
C    -1.180000000     2.320000000    -5.732000000
H    -1.258000000     2.126000000    -6.799000000
C    -0.173000000     2.938000000    -5.013000000
O     1.055000000     3.105000000    -5.729000000
C     2.170000000     3.797000000    -5.312000000
C     3.138000000     3.144000000    -4.559000000
H     3.152000000     2.091000000    -4.292000000
C     2.329000000     5.108000000    -5.639000000
H     1.566000000     5.625000000    -6.215000000
C     3.473000000     5.854000000    -5.295000000
H     3.564000000     6.874000000    -5.659000000
C     4.408000000     5.194000000    -4.516000000
H     5.375000000     5.628000000    -4.276000000
C     4.296000000     3.849000000    -4.252000000
O     5.304000000     3.137000000    -3.533000000
C     5.140000000     2.509000000    -2.323000000
C     6.017000000     1.449000000    -2.171000000
H     6.801000000     1.169000000    -2.871000000
C     5.972000000     0.721000000    -0.963000000
O     6.878000000    -0.316000000    -0.735000000
C     6.724000000    -1.202000000     0.309000000
C     7.477000000    -1.119000000     1.447000000
H     8.205000000    -0.315000000     1.508000000
C     7.363000000    -2.047000000     2.501000000
H     7.955000000    -2.052000000     3.412000000
C     6.395000000    -3.084000000     2.321000000
H     6.272000000    -3.801000000     3.128000000
C     5.629000000    -3.147000000     1.103000000
C     5.767000000    -2.180000000     0.088000000
H     5.212000000    -2.181000000    -0.846000000
C     1.288000000    -2.309000000    -0.925000000
H     2.268000000    -2.731000000    -0.722000000
C     1.013000000    -1.074000000    -0.282000000
H     1.757000000    -0.640000000     0.381000000
C    -0.155000000    -0.407000000    -0.550000000
H    -0.382000000     0.563000000    -0.128000000
C    -0.860000000    -0.804000000    -1.678000000
H    -1.713000000    -0.203000000    -1.983000000
C    -0.674000000    -2.020000000    -2.273000000
H    -1.261000000    -2.331000000    -3.133000000
C     0.413000000    -2.767000000    -1.929000000
C     0.825000000    -3.914000000    -2.727000000
O     0.328000000    -4.086000000    -3.770000000
O     1.834000000    -4.581000000    -2.433000000
O     2.004000000    -9.976000000    -4.622000000
H     2.316000000    -9.306000000    -4.014000000
H     1.091000000    -9.741000000    -4.789000000
O     1.738000000    -4.563000000    -7.814000000
H     1.594000000    -4.733000000    -6.883000000
H     2.684000000    -4.650000000    -7.931000000
O    -0.175000000    -5.887000000    -5.453000000
H     0.114000000    -5.221000000    -4.829000000
H     0.596000000    -6.438000000    -5.589000000
O    -1.922000000    -8.118000000    -3.147000000
H    -1.847000000    -7.231000000    -3.498000000
H    -2.782000000    -8.137000000    -2.726000000
O     4.426000000    -5.454000000    -1.808000000
H     4.614000000    -5.124000000    -0.929000000
H     3.565000000    -5.093000000    -2.020000000
O    -0.110000000    -2.427000000    -8.341000000
H     0.677000000    -2.958000000    -8.466000000
H    -0.368000000    -2.592000000    -7.434000000
O    -0.711000000    -2.552000000    -5.694000000
H    -0.035000000    -1.880000000    -5.785000000
H    -0.548000000    -2.941000000    -4.835000000
O     2.499000000    -8.437000000    -1.389000000
H     2.875000000    -7.563000000    -1.294000000
H     2.705000000    -8.878000000    -0.565000000
O     1.725000000    -6.932000000    -3.797000000
H     2.055000000    -7.223000000    -2.947000000
H     1.498000000    -6.012000000    -3.664000000
O     3.954000000    -1.166000000    -3.086000000
H     4.530000000    -0.660000000    -3.660000000
H     3.530000000    -0.509000000    -2.533000000
O     6.618000000    -7.128000000    -2.057000000
H     5.901000000    -6.498000000    -2.128000000
H     6.214000000    -7.973000000    -2.255000000
O     3.178000000    -3.556000000    -4.611000000
H     2.670000000    -4.033000000    -3.955000000
H     3.518000000    -2.793000000    -4.144000000
O     3.470000000    -1.592000000    -6.508000000
H     3.316000000    -2.443000000    -6.099000000
H     4.318000000    -1.311000000    -6.164000000
O    -2.655000000    -5.019000000    -6.220000000
H    -1.809000000    -5.211000000    -5.815000000
H    -2.613000000    -4.086000000    -6.432000000
O    -0.171000000    -9.362000000    -1.515000000
H     0.683000000    -8.948000000    -1.640000000
H    -0.758000000    -8.880000000    -2.097000000
O     1.103000000    -0.094000000    -5.709000000
H     1.984000000    -0.330000000    -6.000000000
H     0.897000000     0.706000000    -6.193000000
O     5.333000000    -9.089000000    -3.196000000
H     5.070000000   -10.009000000    -3.185000000
H     4.512000000    -8.606000000    -3.290000000
O     1.556000000     0.546000000    -3.094000000
H     1.344000000     0.174000000    -3.951000000
H     0.752000000     0.447000000    -2.585000000
O     5.396000000    -5.648000000    -5.314000000
H     5.248000000    -4.910000000    -4.722000000
H     4.920000000    -5.415000000    -6.111000000
