215
-1430.41035
C    -4.965000000    -2.103000000    -1.511000000
H    -5.614000000    -1.234000000    -1.584000000
C    -4.106000000    -2.394000000    -0.402000000
C    -3.463000000    -3.648000000    -0.433000000
H    -2.952000000    -3.968000000     0.471000000
C    -4.020000000    -1.483000000     0.856000000
O    -4.975000000    -0.375000000     0.797000000
H    -3.047000000    -1.013000000     0.654000000
O    -3.994000000    -2.250000000     2.077000000
C    -2.951000000    -1.836000000     2.850000000
C    -1.867000000    -2.713000000     3.026000000
H    -1.855000000    -3.692000000     2.554000000
C    -0.825000000    -2.158000000     3.775000000
O     0.320000000    -2.884000000     3.852000000
C    -0.905000000    -0.954000000     4.435000000
C     0.275000000    -0.489000000     5.348000000
H    -0.026000000     0.147000000     6.184000000
C     1.270000000     0.212000000     4.533000000
C     1.165000000     1.628000000     4.437000000
H     0.335000000     2.112000000     4.945000000
H     0.743000000    -1.369000000     5.794000000
C    -2.018000000    -0.162000000     4.285000000
H    -2.046000000     0.806000000     4.778000000
C    -3.061000000    -0.576000000     3.537000000
C    -4.374000000     0.303000000     3.471000000
H    -4.548000000     0.935000000     4.344000000
H    -5.338000000    -0.190000000     3.330000000
C    -4.232000000     1.322000000     2.265000000
C    -3.705000000     2.636000000     2.490000000
H    -3.601000000     2.985000000     3.514000000
C    -4.521000000     0.879000000     0.968000000
C    -4.213000000     1.736000000    -0.091000000
H    -4.343000000     1.420000000    -1.123000000
C    -3.625000000     2.972000000     0.087000000
O    -3.197000000     3.600000000    -1.056000000
C    -1.846000000     3.478000000    -1.526000000
C    -1.709000000     3.224000000    -3.026000000
C    -0.619000000     3.741000000    -3.844000000
H     0.163000000     4.275000000    -3.312000000
C    -2.621000000     2.420000000    -3.612000000
H    -3.408000000     1.961000000    -3.019000000
O    -1.224000000     4.715000000    -1.131000000
H    -1.371000000     2.626000000    -1.015000000
C    -3.315000000     3.421000000     1.360000000
C    -2.526000000     4.691000000     1.463000000
H    -2.774000000     5.166000000     2.414000000
H    -2.872000000     5.469000000     0.779000000
C    -1.028000000     4.619000000     1.254000000
C    -0.252000000     4.352000000     2.360000000
H    -0.701000000     4.346000000     3.350000000
C    -0.434000000     4.662000000     0.029000000
C     0.962000000     4.571000000    -0.126000000
H     1.466000000     4.543000000    -1.089000000
C     1.796000000     4.371000000     1.010000000
O     3.072000000     3.962000000     0.718000000
C     3.436000000     2.556000000     0.859000000
C     4.412000000     2.004000000    -0.156000000
C     4.170000000     2.427000000    -1.450000000
H     3.288000000     2.966000000    -1.787000000
C     5.497000000     1.119000000     0.101000000
H     5.696000000     0.896000000     1.146000000
O     3.904000000     2.256000000     2.138000000
H     2.493000000     2.021000000     0.678000000
C     1.195000000     4.320000000     2.304000000
C     2.029000000     3.911000000     3.538000000
H     1.562000000     4.242000000     4.467000000
H     3.022000000     4.364000000     3.480000000
C     2.128000000     2.374000000     3.675000000
C     3.088000000     1.649000000     3.002000000
C     3.236000000     0.305000000     3.123000000
H     3.906000000    -0.178000000     2.417000000
C     2.324000000    -0.417000000     3.875000000
O     2.431000000    -1.773000000     3.828000000
C     1.383000000    -2.377000000     3.090000000
H     0.957000000    -1.632000000     2.401000000
C     1.951000000    -3.482000000     2.188000000
C     1.283000000    -4.679000000     1.981000000
H     0.290000000    -4.863000000     2.383000000
C     3.222000000    -3.377000000     1.600000000
H     3.756000000    -2.431000000     1.636000000
C     3.751000000    -4.448000000     0.860000000
O     4.943000000    -4.361000000     0.174000000
C     2.992000000    -5.557000000     0.635000000
H     3.330000000    -6.408000000     0.048000000
C     1.714000000    -5.657000000     1.171000000
O     0.933000000    -6.712000000     0.807000000
C    -0.421000000    -6.669000000     0.837000000
C    -1.115000000    -6.227000000    -0.255000000
H    -0.583000000    -5.754000000    -1.076000000
C    -1.112000000    -7.274000000     1.859000000
H    -0.669000000    -7.590000000     2.800000000
C    -2.498000000    -7.400000000     1.800000000
H    -3.026000000    -7.824000000     2.650000000
C    -3.215000000    -6.932000000     0.665000000
H    -4.299000000    -6.980000000     0.713000000
C    -2.502000000    -6.320000000    -0.381000000
O    -3.205000000    -5.866000000    -1.419000000
C    -3.712000000    -4.550000000    -1.459000000
C    -4.523000000    -4.201000000    -2.589000000
H    -4.773000000    -4.868000000    -3.410000000
C    -5.132000000    -2.934000000    -2.614000000
O    -5.821000000    -2.475000000    -3.666000000
C    -5.734000000    -1.225000000    -4.118000000
C    -4.614000000    -0.756000000    -4.705000000
H    -3.903000000    -1.461000000    -5.128000000
C    -6.744000000    -0.379000000    -3.796000000
H    -7.563000000    -0.673000000    -3.146000000
C    -6.601000000     1.036000000    -4.032000000
H    -7.309000000     1.753000000    -3.624000000
C    -5.524000000     1.541000000    -4.690000000
H    -5.417000000     2.620000000    -4.772000000
C    -4.466000000     0.608000000    -4.937000000
O    -3.286000000     1.140000000    -5.505000000
C    -2.533000000     2.080000000    -4.945000000
C    -1.373000000     2.498000000    -5.692000000
H    -1.218000000     2.166000000    -6.716000000
C    -0.402000000     3.302000000    -5.128000000
O     0.704000000     3.697000000    -5.802000000
C     1.967000000     4.032000000    -5.220000000
C     2.874000000     3.027000000    -4.890000000
H     2.644000000     1.978000000    -5.062000000
C     2.326000000     5.362000000    -5.035000000
H     1.679000000     6.201000000    -5.277000000
C     3.574000000     5.750000000    -4.488000000
H     3.739000000     6.809000000    -4.303000000
C     4.394000000     4.688000000    -4.007000000
H     5.298000000     5.026000000    -3.507000000
C     4.061000000     3.343000000    -4.267000000
O     4.862000000     2.295000000    -3.828000000
C     5.053000000     2.043000000    -2.461000000
C     6.131000000     1.215000000    -2.201000000
H     6.823000000     0.930000000    -2.989000000
C     6.307000000     0.700000000    -0.919000000
O     7.326000000    -0.259000000    -0.727000000
C     7.096000000    -1.416000000    -0.050000000
C     7.667000000    -1.510000000     1.200000000
H     8.407000000    -0.781000000     1.520000000
C     7.385000000    -2.585000000     2.109000000
H     7.863000000    -2.731000000     3.074000000
C     6.427000000    -3.536000000     1.802000000
H     6.082000000    -4.308000000     2.485000000
C     5.873000000    -3.450000000     0.494000000
C     6.230000000    -2.416000000    -0.462000000
H     5.733000000    -2.400000000    -1.428000000
C     0.501000000    -2.208000000    -1.187000000
H     1.324000000    -2.858000000    -0.902000000
C     0.325000000    -1.021000000    -0.426000000
H     1.018000000    -0.758000000     0.369000000
C    -0.778000000    -0.197000000    -0.689000000
H    -0.961000000     0.709000000    -0.100000000
C    -1.606000000    -0.625000000    -1.768000000
H    -2.438000000     0.005000000    -2.075000000
C    -1.464000000    -1.817000000    -2.426000000
H    -2.155000000    -2.154000000    -3.194000000
C    -0.407000000    -2.589000000    -2.145000000
C    -0.157000000    -3.785000000    -2.953000000
O    -0.919000000    -4.155000000    -3.860000000
O     0.712000000    -4.583000000    -2.708000000
O    -0.817000000    -7.109000000    -6.160000000
H    -1.185000000    -7.344000000    -5.308000000
H    -0.175000000    -6.426000000    -5.963000000
O     0.043000000    -4.438000000    -9.127000000
H    -0.116000000    -5.380000000    -9.188000000
H     0.239000000    -4.288000000    -8.202000000
O    -3.086000000    -5.019000000    -5.289000000
H    -3.081000000    -4.474000000    -6.076000000
H    -2.462000000    -4.595000000    -4.700000000
O    -1.279000000    -6.990000000    -3.485000000
H    -0.919000000    -6.113000000    -3.359000000
H    -2.202000000    -6.907000000    -3.247000000
O     2.593000000    -6.347000000    -3.261000000
H     1.807000000    -5.824000000    -3.099000000
H     2.548000000    -7.052000000    -2.615000000
O    -1.346000000    -9.908000000    -0.568000000
H    -1.259000000    -9.616000000    -1.476000000
H    -1.318000000    -9.102000000    -0.053000000
O    -2.064000000    -2.596000000    -6.823000000
H    -1.620000000    -1.833000000    -7.193000000
H    -1.588000000    -2.782000000    -6.014000000
O     1.175000000    -4.352000000    -5.729000000
H     1.024000000    -3.412000000    -5.828000000
H     0.631000000    -4.604000000    -4.983000000
O     3.879000000    -0.895000000    -4.467000000
H     4.710000000    -0.498000000    -4.728000000
H     3.428000000    -0.207000000    -3.978000000
O     2.743000000    -5.511000000    -7.597000000
H     3.161000000    -6.345000000    -7.382000000
H     2.305000000    -5.247000000    -6.788000000
O     5.300000000    -5.923000000    -2.879000000
H     5.225000000    -4.999000000    -3.117000000
H     4.399000000    -6.246000000    -2.884000000
O     4.554000000    -3.640000000    -4.108000000
H     3.694000000    -4.060000000    -4.112000000
H     4.364000000    -2.702000000    -4.123000000
O     0.017000000    -9.205000000    -2.938000000
H     0.922000000    -9.050000000    -2.666000000
H    -0.372000000    -8.331000000    -2.985000000
O    -2.502000000    -6.364000000    -8.197000000
H    -2.071000000    -6.373000000    -9.052000000
H    -1.854000000    -6.738000000    -7.599000000
O     1.036000000    -1.543000000    -5.386000000
H     1.707000000    -1.201000000    -4.794000000
H     0.917000000    -0.852000000    -6.037000000
O     3.285000000    -7.479000000    -5.861000000
H     3.045000000    -7.044000000    -5.043000000
H     2.848000000    -8.330000000    -5.817000000
O     0.945000000     0.588000000    -6.850000000
H     0.860000000     0.600000000    -7.803000000
H     0.847000000     1.504000000    -6.589000000
O     1.691000000    -0.186000000    -2.964000000
H     0.744000000    -0.282000000    -3.062000000
H     1.906000000    -0.703000000    -2.187000000
O    -3.994000000    -8.377000000    -5.217000000
H    -3.242000000    -7.821000000    -5.419000000
H    -3.626000000    -9.256000000    -5.130000000
