215
-1459.93165
C    -4.494000000    -2.414000000    -0.542000000
H    -4.598000000    -1.372000000    -0.836000000
C    -3.890000000    -2.746000000     0.667000000
C    -3.517000000    -4.065000000     0.971000000
H    -3.059000000    -4.398000000     1.899000000
C    -3.550000000    -1.626000000     1.701000000
O    -4.557000000    -0.647000000     1.671000000
H    -2.611000000    -1.145000000     1.388000000
O    -3.475000000    -2.156000000     3.010000000
C    -2.421000000    -1.814000000     3.736000000
C    -1.306000000    -2.692000000     3.705000000
H    -1.353000000    -3.742000000     3.428000000
C    -0.135000000    -2.101000000     4.151000000
O     1.007000000    -2.885000000     3.992000000
C    -0.044000000    -0.811000000     4.721000000
C     1.239000000    -0.313000000     5.339000000
H     1.050000000     0.479000000     6.067000000
C     2.061000000     0.397000000     4.266000000
C     1.792000000     1.788000000     4.091000000
H     1.044000000     2.230000000     4.744000000
H     1.816000000    -1.126000000     5.785000000
C    -1.227000000    -0.065000000     4.789000000
H    -1.121000000     0.954000000     5.151000000
C    -2.438000000    -0.532000000     4.289000000
C    -3.640000000     0.439000000     4.301000000
H    -3.621000000     1.181000000     5.102000000
H    -4.498000000    -0.218000000     4.464000000
C    -3.756000000     1.276000000     2.965000000
C    -3.318000000     2.583000000     2.954000000
H    -2.927000000     3.007000000     3.875000000
C    -4.200000000     0.731000000     1.734000000
C    -4.283000000     1.470000000     0.589000000
H    -4.669000000     1.004000000    -0.314000000
C    -3.834000000     2.800000000     0.606000000
O    -3.722000000     3.426000000    -0.596000000
C    -2.373000000     3.438000000    -1.085000000
C    -2.359000000     2.944000000    -2.530000000
C    -1.558000000     3.480000000    -3.501000000
H    -0.759000000     4.153000000    -3.204000000
C    -3.265000000     1.937000000    -2.958000000
H    -3.951000000     1.464000000    -2.260000000
O    -1.873000000     4.751000000    -0.961000000
H    -1.774000000     2.743000000    -0.479000000
C    -3.227000000     3.303000000     1.766000000
C    -2.546000000     4.749000000     1.896000000
H    -2.466000000     4.901000000     2.974000000
H    -3.057000000     5.577000000     1.400000000
C    -1.165000000     4.693000000     1.329000000
C    -0.136000000     4.565000000     2.209000000
H    -0.342000000     4.496000000     3.275000000
C    -0.847000000     4.784000000    -0.024000000
C     0.484000000     4.674000000    -0.476000000
H     0.577000000     4.676000000    -1.559000000
C     1.518000000     4.371000000     0.441000000
O     2.788000000     3.969000000    -0.026000000
C     3.144000000     2.533000000     0.028000000
C     3.866000000     2.226000000    -1.340000000
C     3.670000000     3.012000000    -2.454000000
H     3.055000000     3.908000000    -2.433000000
C     4.731000000     1.174000000    -1.305000000
H     4.674000000     0.530000000    -0.431000000
O     4.062000000     2.392000000     1.211000000
H     2.181000000     2.007000000     0.117000000
C     1.173000000     4.269000000     1.804000000
C     2.258000000     3.957000000     2.840000000
H     1.983000000     4.356000000     3.818000000
H     3.194000000     4.463000000     2.593000000
C     2.495000000     2.449000000     3.081000000
C     3.389000000     1.774000000     2.245000000
C     3.682000000     0.427000000     2.539000000
H     4.503000000    -0.071000000     2.028000000
C     2.905000000    -0.300000000     3.446000000
O     3.109000000    -1.640000000     3.564000000
C     2.003000000    -2.414000000     2.992000000
H     1.429000000    -1.707000000     2.374000000
C     2.509000000    -3.414000000     1.959000000
C     1.697000000    -4.539000000     1.568000000
H     0.689000000    -4.675000000     1.952000000
C     3.754000000    -3.243000000     1.388000000
H     4.290000000    -2.313000000     1.556000000
C     4.258000000    -4.262000000     0.575000000
O     5.529000000    -4.088000000    -0.007000000
C     3.460000000    -5.295000000     0.193000000
H     3.847000000    -6.031000000    -0.508000000
C     2.175000000    -5.407000000     0.564000000
O     1.410000000    -6.423000000     0.065000000
C     0.252000000    -6.809000000     0.634000000
C    -0.979000000    -6.491000000     0.097000000
H    -0.953000000    -5.835000000    -0.769000000
C     0.272000000    -7.575000000     1.810000000
H     1.266000000    -7.870000000     2.138000000
C    -0.942000000    -7.996000000     2.344000000
H    -0.927000000    -8.580000000     3.260000000
C    -2.161000000    -7.733000000     1.787000000
H    -3.094000000    -8.116000000     2.193000000
C    -2.203000000    -6.827000000     0.687000000
O    -3.397000000    -6.401000000     0.205000000
C    -3.852000000    -5.129000000     0.046000000
C    -4.580000000    -4.746000000    -1.055000000
H    -4.750000000    -5.510000000    -1.809000000
C    -4.871000000    -3.466000000    -1.405000000
O    -5.453000000    -3.215000000    -2.631000000
C    -5.805000000    -1.964000000    -2.984000000
C    -4.937000000    -1.191000000    -3.802000000
H    -4.010000000    -1.641000000    -4.147000000
C    -6.897000000    -1.400000000    -2.421000000
H    -7.478000000    -2.076000000    -1.799000000
C    -7.131000000    -0.027000000    -2.532000000
H    -7.908000000     0.443000000    -1.935000000
C    -6.411000000     0.722000000    -3.396000000
H    -6.456000000     1.794000000    -3.571000000
C    -5.228000000     0.122000000    -4.034000000
O    -4.423000000     0.876000000    -4.875000000
C    -3.451000000     1.717000000    -4.364000000
C    -2.549000000     2.202000000    -5.274000000
H    -2.660000000     1.869000000    -6.303000000
C    -1.529000000     3.114000000    -4.844000000
O    -0.633000000     3.615000000    -5.787000000
C     0.541000000     4.258000000    -5.632000000
C     1.667000000     3.535000000    -5.234000000
H     1.547000000     2.458000000    -5.155000000
C     0.711000000     5.622000000    -6.021000000
H    -0.137000000     6.208000000    -6.367000000
C     1.924000000     6.316000000    -5.816000000
H     1.946000000     7.390000000    -5.982000000
C     2.998000000     5.531000000    -5.310000000
H     3.983000000     5.973000000    -5.176000000
C     2.913000000     4.160000000    -5.036000000
O     4.064000000     3.464000000    -4.725000000
C     4.291000000     2.674000000    -3.624000000
C     5.252000000     1.730000000    -3.604000000
H     5.843000000     1.558000000    -4.499000000
C     5.389000000     0.869000000    -2.494000000
O     6.266000000    -0.188000000    -2.619000000
C     6.606000000    -1.006000000    -1.563000000
C     7.822000000    -0.783000000    -0.935000000
H     8.439000000     0.045000000    -1.272000000
C     8.205000000    -1.528000000     0.136000000
H     9.147000000    -1.272000000     0.616000000
C     7.432000000    -2.630000000     0.485000000
H     7.736000000    -3.220000000     1.345000000
C     6.154000000    -2.908000000    -0.175000000
C     5.773000000    -2.060000000    -1.203000000
H     4.832000000    -2.263000000    -1.708000000
C     0.787000000    -2.538000000    -1.599000000
H     1.433000000    -3.363000000    -1.890000000
C     1.184000000    -1.552000000    -0.698000000
H     2.207000000    -1.443000000    -0.347000000
C     0.288000000    -0.534000000    -0.424000000
H     0.609000000     0.348000000     0.219000000
C    -1.018000000    -0.539000000    -0.885000000
H    -1.770000000     0.213000000    -0.664000000
C    -1.404000000    -1.553000000    -1.799000000
H    -2.431000000    -1.543000000    -2.155000000
C    -0.466000000    -2.479000000    -2.218000000
C    -0.777000000    -3.514000000    -3.194000000
O    -1.663000000    -3.295000000    -3.953000000
O    -0.246000000    -4.585000000    -3.187000000
O     1.134000000     0.116000000    -6.334000000
H     0.301000000     0.089000000    -5.863000000
H     1.773000000    -0.232000000    -5.711000000
O    -2.867000000    -3.191000000    -6.359000000
H    -2.447000000    -3.089000000    -5.505000000
H    -3.568000000    -3.825000000    -6.207000000
O    -5.592000000    -7.350000000    -2.985000000
H    -5.713000000    -8.005000000    -3.672000000
H    -4.684000000    -7.460000000    -2.705000000
O     3.638000000    -3.450000000    -3.741000000
H     4.194000000    -4.195000000    -3.966000000
H     2.776000000    -3.834000000    -3.579000000
O    -3.542000000    -0.483000000    -7.695000000
H    -2.741000000    -0.212000000    -8.142000000
H    -3.266000000    -1.196000000    -7.119000000
O    -2.211000000    -6.037000000    -4.431000000
H    -1.695000000    -5.248000000    -4.266000000
H    -2.129000000    -6.184000000    -5.373000000
O     4.768000000    -0.155000000    -6.131000000
H     5.551000000    -0.561000000    -5.759000000
H     4.064000000    -0.397000000    -5.530000000
O    -3.002000000   -10.298000000    -2.112000000
H    -3.108000000   -10.524000000    -3.036000000
H    -2.956000000    -9.342000000    -2.103000000
O    -1.420000000    -4.281000000    -8.394000000
H    -1.790000000    -3.724000000    -7.709000000
H    -0.485000000    -4.076000000    -8.391000000
O     2.616000000    -1.012000000    -4.333000000
H     2.708000000    -0.715000000    -3.428000000
H     2.798000000    -1.951000000    -4.296000000
O    -5.269000000    -4.876000000    -5.534000000
H    -6.159000000    -5.160000000    -5.326000000
H    -4.750000000    -5.133000000    -4.772000000
O    -2.885000000    -7.595000000    -2.468000000
H    -2.818000000    -7.101000000    -1.650000000
H    -2.744000000    -6.942000000    -3.153000000
O    -1.664000000    -6.676000000    -7.245000000
H    -1.742000000    -6.003000000    -7.921000000
H    -0.954000000    -7.241000000    -7.550000000
O     0.252000000    -7.338000000    -3.756000000
H     0.097000000    -6.394000000    -3.721000000
H    -0.622000000    -7.726000000    -3.713000000
O    -4.517000000    -5.701000000    -7.987000000
H    -4.755000000    -5.222000000    -7.193000000
H    -3.824000000    -6.300000000    -7.706000000
O    -1.091000000    -0.592000000    -4.755000000
H    -1.465000000    -1.457000000    -4.590000000
H    -1.720000000     0.019000000    -4.370000000
O     1.001000000    -2.759000000    -7.235000000
H     0.948000000    -1.929000000    -6.761000000
H     1.686000000    -2.618000000    -7.889000000
O     1.496000000    -4.884000000    -5.246000000
H     1.090000000    -4.448000000    -5.995000000
H     0.876000000    -4.755000000    -4.528000000
O     3.905000000    -6.242000000    -5.944000000
H     3.651000000    -7.129000000    -5.690000000
H     3.076000000    -5.770000000    -6.027000000
