215
-1457.28514
C    -4.733000000    -2.248000000    -0.794000000
H    -4.935000000    -1.213000000    -1.058000000
C    -4.181000000    -2.579000000     0.402000000
C    -3.662000000    -3.868000000     0.620000000
H    -3.239000000    -4.169000000     1.576000000
C    -3.697000000    -1.445000000     1.244000000
O    -4.681000000    -0.312000000     1.238000000
H    -2.717000000    -1.114000000     0.870000000
O    -3.570000000    -1.960000000     2.577000000
C    -2.523000000    -1.551000000     3.375000000
C    -1.446000000    -2.391000000     3.338000000
H    -1.374000000    -3.221000000     2.640000000
C    -0.317000000    -2.040000000     4.089000000
O     0.901000000    -2.756000000     3.978000000
C    -0.288000000    -0.820000000     4.786000000
C     0.977000000    -0.370000000     5.495000000
H     0.768000000     0.195000000     6.405000000
C     1.860000000     0.268000000     4.488000000
C     1.652000000     1.620000000     4.180000000
H     0.902000000     2.167000000     4.745000000
H     1.418000000    -1.276000000     5.916000000
C    -1.378000000     0.068000000     4.705000000
H    -1.307000000     1.039000000     5.188000000
C    -2.513000000    -0.304000000     4.002000000
C    -3.720000000     0.596000000     3.923000000
H    -3.761000000     1.318000000     4.742000000
H    -4.628000000    -0.007000000     3.868000000
C    -3.732000000     1.393000000     2.576000000
C    -3.216000000     2.661000000     2.674000000
H    -2.797000000     3.008000000     3.616000000
C    -4.321000000     0.984000000     1.381000000
C    -4.145000000     1.833000000     0.258000000
H    -4.475000000     1.382000000    -0.675000000
C    -3.620000000     3.070000000     0.300000000
O    -3.521000000     3.697000000    -0.906000000
C    -2.185000000     3.684000000    -1.491000000
C    -2.225000000     3.299000000    -2.966000000
C    -1.230000000     3.648000000    -3.845000000
H    -0.479000000     4.337000000    -3.466000000
C    -3.220000000     2.389000000    -3.376000000
H    -4.126000000     2.193000000    -2.808000000
O    -1.432000000     4.909000000    -1.313000000
H    -1.614000000     2.858000000    -1.040000000
C    -3.170000000     3.548000000     1.506000000
C    -2.554000000     4.963000000     1.471000000
H    -2.692000000     5.475000000     2.425000000
H    -3.021000000     5.430000000     0.601000000
C    -1.122000000     4.752000000     1.227000000
C    -0.259000000     4.426000000     2.296000000
H    -0.675000000     4.144000000     3.260000000
C    -0.597000000     4.810000000    -0.136000000
C     0.747000000     4.560000000    -0.384000000
H     1.077000000     4.549000000    -1.420000000
C     1.556000000     4.216000000     0.669000000
O     2.810000000     3.893000000     0.269000000
C     3.343000000     2.515000000     0.248000000
C     4.239000000     2.250000000    -0.980000000
C     4.013000000     2.971000000    -2.205000000
H     3.417000000     3.879000000    -2.254000000
C     4.944000000     1.080000000    -1.007000000
H     5.110000000     0.447000000    -0.139000000
O     4.038000000     2.304000000     1.507000000
H     2.640000000     1.679000000     0.112000000
C     1.117000000     4.167000000     1.993000000
C     2.146000000     3.836000000     3.046000000
H     1.778000000     4.168000000     4.019000000
H     3.120000000     4.316000000     2.930000000
C     2.375000000     2.350000000     3.244000000
C     3.332000000     1.673000000     2.498000000
C     3.704000000     0.323000000     2.934000000
H     4.637000000    -0.046000000     2.516000000
C     2.963000000    -0.360000000     3.914000000
O     3.040000000    -1.750000000     3.933000000
C     1.995000000    -2.308000000     3.163000000
H     1.592000000    -1.562000000     2.462000000
C     2.476000000    -3.489000000     2.253000000
C     1.572000000    -4.477000000     1.951000000
H     0.590000000    -4.579000000     2.405000000
C     3.748000000    -3.481000000     1.729000000
H     4.415000000    -2.634000000     1.875000000
C     4.157000000    -4.507000000     0.880000000
O     5.390000000    -4.449000000     0.249000000
C     3.324000000    -5.505000000     0.623000000
H     3.624000000    -6.306000000    -0.048000000
C     1.999000000    -5.523000000     1.199000000
O     1.248000000    -6.646000000     0.912000000
C    -0.106000000    -6.772000000     1.314000000
C    -1.150000000    -6.206000000     0.582000000
H    -0.890000000    -5.443000000    -0.147000000
C    -0.415000000    -7.736000000     2.391000000
H     0.344000000    -8.046000000     3.106000000
C    -1.773000000    -7.977000000     2.657000000
H    -2.011000000    -8.681000000     3.449000000
C    -2.800000000    -7.447000000     1.838000000
H    -3.854000000    -7.632000000     2.031000000
C    -2.460000000    -6.566000000     0.781000000
O    -3.494000000    -6.109000000    -0.021000000
C    -3.859000000    -4.878000000    -0.262000000
C    -4.503000000    -4.581000000    -1.491000000
H    -4.705000000    -5.383000000    -2.197000000
C    -4.890000000    -3.250000000    -1.783000000
O    -5.524000000    -3.079000000    -3.016000000
C    -5.783000000    -1.823000000    -3.360000000
C    -4.833000000    -1.050000000    -4.042000000
H    -3.851000000    -1.488000000    -4.199000000
C    -7.045000000    -1.334000000    -3.155000000
H    -7.822000000    -1.912000000    -2.661000000
C    -7.327000000    -0.013000000    -3.539000000
H    -8.280000000     0.478000000    -3.360000000
C    -6.319000000     0.773000000    -4.153000000
H    -6.478000000     1.816000000    -4.415000000
C    -5.049000000     0.237000000    -4.351000000
O    -4.139000000     0.985000000    -5.113000000
C    -3.216000000     1.895000000    -4.668000000
C    -2.093000000     2.158000000    -5.515000000
H    -2.036000000     1.698000000    -6.498000000
C    -1.133000000     3.060000000    -5.096000000
O    -0.041000000     3.389000000    -5.942000000
C     1.136000000     4.019000000    -5.571000000
C     2.292000000     3.344000000    -5.290000000
H     2.339000000     2.266000000    -5.424000000
C     1.134000000     5.389000000    -5.409000000
H     0.180000000     5.899000000    -5.518000000
C     2.247000000     6.122000000    -5.125000000
H     2.166000000     7.200000000    -5.010000000
C     3.448000000     5.390000000    -4.914000000
H     4.360000000     5.964000000    -4.772000000
C     3.443000000     4.019000000    -4.949000000
O     4.571000000     3.313000000    -4.622000000
C     4.685000000     2.610000000    -3.393000000
C     5.486000000     1.474000000    -3.361000000
H     6.028000000     1.038000000    -4.197000000
C     5.591000000     0.714000000    -2.171000000
O     6.340000000    -0.427000000    -2.220000000
C     6.578000000    -1.269000000    -1.214000000
C     7.699000000    -1.101000000    -0.399000000
H     8.502000000    -0.407000000    -0.634000000
C     7.867000000    -1.918000000     0.697000000
H     8.710000000    -1.840000000     1.378000000
C     7.101000000    -3.057000000     0.819000000
H     7.312000000    -3.736000000     1.641000000
C     6.064000000    -3.285000000    -0.018000000
C     5.736000000    -2.383000000    -0.998000000
H     4.884000000    -2.514000000    -1.660000000
C     1.081000000    -2.206000000    -1.142000000
H     1.807000000    -2.990000000    -1.340000000
C     1.337000000    -1.129000000    -0.355000000
H     2.258000000    -1.123000000     0.222000000
C     0.361000000    -0.166000000    -0.047000000
H     0.560000000     0.671000000     0.657000000
C    -0.910000000    -0.321000000    -0.650000000
H    -1.707000000     0.394000000    -0.462000000
C    -1.183000000    -1.418000000    -1.470000000
H    -2.169000000    -1.535000000    -1.912000000
C    -0.211000000    -2.413000000    -1.722000000
C    -0.410000000    -3.575000000    -2.658000000
O    -1.452000000    -3.775000000    -3.200000000
O     0.600000000    -4.204000000    -2.989000000
O     5.589000000    -5.053000000    -3.167000000
H     5.110000000    -4.636000000    -2.450000000
H     5.845000000    -5.907000000    -2.819000000
O     0.986000000     0.018000000    -6.696000000
H     0.330000000     0.260000000    -6.043000000
H     1.768000000    -0.188000000    -6.185000000
O    -2.152000000    -3.158000000    -5.679000000
H    -1.773000000    -3.427000000    -4.842000000
H    -3.008000000    -3.587000000    -5.703000000
O    -3.825000000    -8.573000000    -2.999000000
H    -3.169000000    -9.240000000    -3.202000000
H    -3.332000000    -7.753000000    -2.970000000
O     3.117000000    -3.115000000    -3.607000000
H     3.632000000    -3.452000000    -4.339000000
H     2.303000000    -3.618000000    -3.634000000
O    -2.270000000    -0.879000000    -7.325000000
H    -2.382000000    -1.518000000    -6.621000000
H    -1.395000000    -1.054000000    -7.671000000
O    -2.491000000    -6.307000000    -3.245000000
H    -2.267000000    -5.383000000    -3.134000000
H    -1.699000000    -6.778000000    -2.987000000
O     3.408000000    -0.472000000    -5.575000000
H     4.190000000    -0.979000000    -5.794000000
H     3.267000000    -0.641000000    -4.643000000
O    -0.899000000    -9.199000000    -4.207000000
H    -0.302000000    -8.522000000    -3.889000000
H    -1.129000000    -9.702000000    -3.425000000
O     2.244000000    -7.487000000    -5.388000000
H     1.782000000    -6.680000000    -5.157000000
H     1.714000000    -7.875000000    -6.084000000
O    -0.605000000    -3.116000000    -7.953000000
H    -1.123000000    -3.148000000    -7.148000000
H     0.290000000    -3.302000000    -7.669000000
O     2.945000000    -0.561000000    -2.882000000
H     2.466000000    -0.580000000    -2.053000000
H     3.242000000    -1.462000000    -3.008000000
O    -4.302000000    -4.693000000    -5.170000000
H    -5.049000000    -4.353000000    -4.676000000
H    -3.607000000    -4.788000000    -4.518000000
O    -1.642000000    -5.920000000    -6.759000000
H    -1.274000000    -6.573000000    -7.355000000
H    -0.884000000    -5.419000000    -6.456000000
O     0.378000000    -6.852000000    -2.778000000
H     0.396000000    -5.896000000    -2.743000000
H     1.224000000    -7.122000000    -2.419000000
O    -4.102000000    -7.059000000    -6.329000000
H    -4.402000000    -6.299000000    -5.831000000
H    -3.211000000    -6.835000000    -6.597000000
O     0.347000000     0.085000000    -3.989000000
H    -0.364000000    -0.121000000    -3.383000000
H     1.125000000     0.146000000    -3.435000000
O     1.884000000    -2.732000000    -7.181000000
H     1.659000000    -1.802000000    -7.163000000
H     2.641000000    -2.784000000    -7.764000000
O     0.737000000    -4.903000000    -5.632000000
H     1.310000000    -4.203000000    -5.942000000
H     0.549000000    -4.674000000    -4.722000000
