215
-1445.70741
C    -4.414000000    -2.337000000    -1.355000000
H    -4.905000000    -1.369000000    -1.293000000
C    -3.842000000    -2.848000000    -0.231000000
C    -3.321000000    -4.150000000    -0.203000000
H    -2.881000000    -4.493000000     0.730000000
C    -3.584000000    -1.847000000     0.927000000
O    -4.777000000    -1.105000000     1.173000000
H    -2.712000000    -1.213000000     0.709000000
O    -3.333000000    -2.603000000     2.045000000
C    -2.430000000    -2.196000000     3.007000000
C    -1.225000000    -2.846000000     3.054000000
H    -0.950000000    -3.700000000     2.441000000
C    -0.176000000    -2.370000000     3.891000000
O     1.059000000    -2.956000000     3.739000000
C    -0.376000000    -1.269000000     4.687000000
C     0.778000000    -0.712000000     5.580000000
H     0.324000000    -0.147000000     6.397000000
C     1.781000000     0.173000000     4.835000000
C     1.426000000     1.546000000     4.588000000
H     0.676000000     2.135000000     5.109000000
H     1.329000000    -1.591000000     5.920000000
C    -1.619000000    -0.692000000     4.751000000
H    -1.790000000     0.204000000     5.342000000
C    -2.677000000    -1.086000000     3.860000000
C    -4.073000000    -0.430000000     3.917000000
H    -4.272000000     0.142000000     4.826000000
H    -4.901000000    -1.142000000     3.881000000
C    -4.166000000     0.615000000     2.773000000
C    -3.817000000     1.989000000     3.014000000
H    -3.379000000     2.266000000     3.970000000
C    -4.597000000     0.269000000     1.491000000
C    -4.650000000     1.220000000     0.502000000
H    -4.923000000     0.912000000    -0.504000000
C    -4.137000000     2.457000000     0.669000000
O    -4.029000000     3.163000000    -0.503000000
C    -2.735000000     3.255000000    -1.152000000
C    -2.781000000     3.247000000    -2.678000000
C    -1.784000000     3.791000000    -3.483000000
H    -0.927000000     4.204000000    -2.957000000
C    -3.925000000     2.695000000    -3.351000000
H    -4.621000000     2.240000000    -2.651000000
O    -2.183000000     4.450000000    -0.564000000
H    -2.185000000     2.333000000    -0.912000000
C    -3.734000000     2.914000000     1.961000000
C    -2.994000000     4.202000000     2.067000000
H    -3.066000000     4.460000000     3.126000000
H    -3.482000000     4.985000000     1.482000000
C    -1.503000000     4.063000000     1.611000000
C    -0.561000000     3.814000000     2.579000000
H    -0.752000000     3.711000000     3.644000000
C    -1.183000000     4.323000000     0.323000000
C     0.186000000     4.286000000    -0.030000000
H     0.414000000     4.444000000    -1.081000000
C     1.155000000     3.982000000     0.919000000
O     2.454000000     3.846000000     0.581000000
C     3.020000000     2.521000000     0.735000000
C     3.784000000     2.161000000    -0.551000000
C     3.250000000     2.402000000    -1.839000000
H     2.280000000     2.860000000    -2.013000000
C     5.028000000     1.557000000    -0.456000000
H     5.582000000     1.277000000     0.437000000
O     3.876000000     2.293000000     1.913000000
H     2.236000000     1.751000000     0.678000000
C     0.783000000     3.783000000     2.263000000
C     1.780000000     3.747000000     3.396000000
H     1.440000000     4.251000000     4.303000000
H     2.576000000     4.469000000     3.204000000
C     2.204000000     2.283000000     3.697000000
C     3.295000000     1.689000000     2.970000000
C     3.620000000     0.358000000     3.284000000
H     4.409000000    -0.124000000     2.712000000
C     2.885000000    -0.378000000     4.195000000
O     3.061000000    -1.749000000     4.026000000
C     2.169000000    -2.304000000     2.998000000
H     1.694000000    -1.533000000     2.374000000
C     2.935000000    -3.268000000     2.075000000
C     2.229000000    -4.156000000     1.311000000
H     1.142000000    -4.152000000     1.290000000
C     4.345000000    -3.067000000     1.848000000
H     4.845000000    -2.255000000     2.369000000
C     4.895000000    -3.794000000     0.817000000
O     6.252000000    -3.643000000     0.741000000
C     4.205000000    -4.823000000     0.194000000
H     4.699000000    -5.535000000    -0.462000000
C     2.856000000    -4.954000000     0.343000000
O     2.251000000    -5.842000000    -0.530000000
C     0.902000000    -6.274000000    -0.162000000
C    -0.149000000    -5.942000000    -0.969000000
H     0.045000000    -5.425000000    -1.906000000
C     0.759000000    -7.059000000     0.936000000
H     1.618000000    -7.358000000     1.532000000
C    -0.514000000    -7.397000000     1.386000000
H    -0.826000000    -7.813000000     2.341000000
C    -1.625000000    -6.996000000     0.577000000
H    -2.664000000    -7.113000000     0.875000000
C    -1.409000000    -6.286000000    -0.575000000
O    -2.485000000    -6.079000000    -1.449000000
C    -3.244000000    -4.870000000    -1.360000000
C    -3.780000000    -4.368000000    -2.549000000
H    -3.701000000    -4.991000000    -3.436000000
C    -4.418000000    -3.102000000    -2.477000000
O    -5.008000000    -2.753000000    -3.673000000
C    -5.687000000    -1.572000000    -3.868000000
C    -4.956000000    -0.549000000    -4.369000000
H    -3.890000000    -0.687000000    -4.529000000
C    -6.967000000    -1.297000000    -3.435000000
H    -7.431000000    -2.102000000    -2.871000000
C    -7.566000000    -0.053000000    -3.635000000
H    -8.575000000     0.153000000    -3.286000000
C    -6.828000000     0.965000000    -4.182000000
H    -7.163000000     1.998000000    -4.228000000
C    -5.534000000     0.702000000    -4.623000000
O    -4.845000000     1.725000000    -5.239000000
C    -3.877000000     2.497000000    -4.700000000
C    -2.952000000     3.182000000    -5.455000000
H    -3.058000000     3.189000000    -6.537000000
C    -1.852000000     3.802000000    -4.850000000
O    -0.804000000     4.297000000    -5.628000000
C     0.440000000     4.327000000    -5.122000000
C     1.252000000     3.203000000    -5.039000000
H     0.855000000     2.241000000    -5.355000000
C     0.826000000     5.556000000    -4.619000000
H     0.146000000     6.404000000    -4.635000000
C     2.155000000     5.776000000    -4.158000000
H     2.562000000     6.776000000    -4.033000000
C     3.004000000     4.671000000    -4.168000000
H     4.039000000     4.728000000    -3.841000000
C     2.490000000     3.353000000    -4.472000000
O     3.310000000     2.296000000    -4.218000000
C     3.974000000     2.117000000    -3.008000000
C     5.178000000     1.500000000    -2.924000000
H     5.709000000     1.085000000    -3.777000000
C     5.674000000     1.259000000    -1.678000000
O     6.922000000     0.633000000    -1.530000000
C     7.228000000    -0.334000000    -0.566000000
C     8.417000000    -0.169000000     0.118000000
H     9.130000000     0.622000000    -0.101000000
C     8.882000000    -1.208000000     0.926000000
H     9.928000000    -1.183000000     1.222000000
C     8.136000000    -2.347000000     1.117000000
H     8.576000000    -3.281000000     1.457000000
C     6.853000000    -2.466000000     0.487000000
C     6.413000000    -1.439000000    -0.345000000
H     5.507000000    -1.551000000    -0.936000000
C    -0.202000000    -1.754000000    -1.249000000
H    -0.486000000    -2.803000000    -1.273000000
C     0.021000000    -1.047000000    -0.073000000
H    -0.141000000    -1.499000000     0.902000000
C     0.246000000     0.322000000    -0.077000000
H     0.301000000     0.814000000     0.954000000
C     0.329000000     0.982000000    -1.308000000
H     0.612000000     2.030000000    -1.367000000
C     0.098000000     0.287000000    -2.474000000
H     0.126000000     0.836000000    -3.412000000
C    -0.233000000    -1.120000000    -2.460000000
C    -0.499000000    -1.904000000    -3.731000000
O    -0.646000000    -1.273000000    -4.782000000
O    -0.283000000    -3.083000000    -3.642000000
O     1.744000000    -0.286000000    -7.201000000
H     0.915000000     0.088000000    -6.902000000
H     1.879000000    -1.050000000    -6.640000000
O    -2.645000000    -2.271000000    -6.097000000
H    -2.661000000    -3.124000000    -5.663000000
H    -1.905000000    -1.813000000    -5.697000000
O    -1.146000000    -1.274000000    -8.938000000
H    -1.230000000    -2.227000000    -8.968000000
H    -1.926000000    -0.980000000    -8.469000000
O     3.746000000    -2.569000000    -3.179000000
H     3.323000000    -2.075000000    -2.477000000
H     4.676000000    -2.362000000    -3.090000000
O     1.094000000    -6.219000000    -7.317000000
H     0.849000000    -5.501000000    -6.733000000
H     1.878000000    -6.596000000    -6.917000000
O    -0.564000000    -8.379000000    -5.120000000
H     0.151000000    -8.205000000    -4.508000000
H    -0.824000000    -7.514000000    -5.437000000
O    -3.580000000    -5.587000000    -6.538000000
H    -4.522000000    -5.746000000    -6.601000000
H    -3.254000000    -5.724000000    -7.428000000
O     1.136000000    -7.899000000    -3.107000000
H     1.638000000    -8.622000000    -2.731000000
H     0.854000000    -7.384000000    -2.351000000
O     3.315000000    -6.525000000    -5.426000000
H     4.016000000    -6.514000000    -4.775000000
H     2.590000000    -6.062000000    -5.005000000
O     1.348000000    -2.725000000    -6.177000000
H     1.726000000    -3.278000000    -5.494000000
H     0.573000000    -2.338000000    -5.771000000
O    -3.417000000    -0.399000000    -7.710000000
H    -4.347000000    -0.183000000    -7.639000000
H    -3.299000000    -1.146000000    -7.123000000
O     2.909000000    -1.027000000    -1.056000000
H     2.900000000    -0.076000000    -1.170000000
H     2.102000000    -1.217000000    -0.576000000
O    -0.912000000    -5.270000000    -5.562000000
H    -0.595000000    -4.619000000    -4.936000000
H    -1.864000000    -5.166000000    -5.554000000
O     2.922000000    -4.148000000    -8.548000000
H     2.174000000    -4.067000000    -7.957000000
H     3.681000000    -4.201000000    -7.967000000
O    -1.368000000    -3.729000000    -7.966000000
H    -1.273000000    -2.975000000    -7.384000000
H    -1.088000000    -4.477000000    -7.437000000
O    -0.621000000     0.750000000    -6.531000000
H    -0.696000000     0.207000000    -5.746000000
H    -1.336000000     0.456000000    -7.095000000
O     1.827000000    -1.390000000   -10.208000000
H     1.500000000    -1.185000000    -9.332000000
H     1.654000000    -0.599000000   -10.719000000
O     1.943000000    -4.609000000    -4.132000000
H     2.577000000    -4.165000000    -3.569000000
H     1.092000000    -4.394000000    -3.750000000
O     4.412000000    -4.033000000    -5.968000000
H     4.124000000    -3.704000000    -5.116000000
H     4.116000000    -4.943000000    -5.986000000
