215
-1473.38809
C    -4.623000000    -2.172000000    -1.712000000
H    -5.098000000    -1.196000000    -1.648000000
C    -4.019000000    -2.667000000    -0.584000000
C    -3.371000000    -3.942000000    -0.698000000
H    -2.811000000    -4.312000000     0.157000000
C    -3.871000000    -1.766000000     0.671000000
O    -4.942000000    -0.899000000     0.886000000
H    -2.993000000    -1.181000000     0.363000000
O    -3.701000000    -2.588000000     1.908000000
C    -2.744000000    -2.218000000     2.773000000
C    -1.570000000    -2.950000000     2.810000000
H    -1.473000000    -3.790000000     2.127000000
C    -0.568000000    -2.728000000     3.747000000
O     0.690000000    -3.266000000     3.551000000
C    -0.692000000    -1.643000000     4.645000000
C     0.462000000    -1.175000000     5.601000000
H    -0.050000000    -0.793000000     6.486000000
C     1.402000000    -0.183000000     4.812000000
C     1.161000000     1.212000000     4.685000000
H     0.251000000     1.634000000     5.103000000
H     1.041000000    -1.991000000     6.038000000
C    -1.846000000    -0.918000000     4.654000000
H    -1.970000000    -0.098000000     5.356000000
C    -2.853000000    -1.169000000     3.644000000
C    -4.120000000    -0.365000000     3.675000000
H    -4.364000000     0.073000000     4.645000000
H    -4.946000000    -1.065000000     3.531000000
C    -4.074000000     0.652000000     2.478000000
C    -3.565000000     1.911000000     2.717000000
H    -3.227000000     2.200000000     3.709000000
C    -4.626000000     0.377000000     1.192000000
C    -4.690000000     1.317000000     0.192000000
H    -4.904000000     1.072000000    -0.845000000
C    -4.126000000     2.556000000     0.454000000
O    -3.863000000     3.324000000    -0.707000000
C    -2.415000000     3.323000000    -1.159000000
C    -2.392000000     3.228000000    -2.624000000
C    -1.191000000     3.542000000    -3.259000000
H    -0.320000000     3.934000000    -2.741000000
C    -3.433000000     2.634000000    -3.338000000
H    -4.420000000     2.449000000    -2.921000000
O    -1.687000000     4.488000000    -0.693000000
H    -1.982000000     2.380000000    -0.791000000
C    -3.579000000     2.881000000     1.715000000
C    -2.944000000     4.263000000     1.986000000
H    -3.198000000     4.574000000     3.001000000
H    -3.366000000     4.992000000     1.291000000
C    -1.438000000     4.150000000     1.817000000
C    -0.541000000     4.024000000     2.880000000
H    -0.795000000     3.927000000     3.933000000
C    -0.912000000     4.248000000     0.452000000
C     0.501000000     4.140000000     0.247000000
H     0.919000000     4.427000000    -0.715000000
C     1.310000000     3.909000000     1.335000000
O     2.636000000     3.776000000     1.160000000
C     3.156000000     2.444000000     1.103000000
C     4.179000000     2.364000000    -0.034000000
C     3.984000000     3.050000000    -1.196000000
H     3.146000000     3.728000000    -1.338000000
C     5.273000000     1.488000000     0.144000000
H     5.469000000     0.875000000     1.019000000
O     3.825000000     2.137000000     2.346000000
H     2.251000000     1.832000000     0.972000000
C     0.754000000     3.732000000     2.607000000
C     1.652000000     3.445000000     3.793000000
H     1.258000000     3.658000000     4.789000000
H     2.535000000     4.085000000     3.738000000
C     1.979000000     2.031000000     3.963000000
C     3.051000000     1.445000000     3.293000000
C     3.373000000     0.111000000     3.377000000
H     4.055000000    -0.222000000     2.598000000
C     2.536000000    -0.689000000     4.081000000
O     2.670000000    -2.095000000     3.926000000
C     1.737000000    -2.546000000     2.926000000
H     1.285000000    -1.676000000     2.428000000
C     2.483000000    -3.398000000     1.889000000
C     1.793000000    -4.324000000     1.174000000
H     0.709000000    -4.403000000     1.215000000
C     3.848000000    -3.242000000     1.628000000
H     4.349000000    -2.410000000     2.116000000
C     4.472000000    -4.069000000     0.673000000
O     5.813000000    -3.945000000     0.294000000
C     3.755000000    -5.092000000     0.038000000
H     4.248000000    -5.666000000    -0.743000000
C     2.375000000    -5.240000000     0.259000000
O     1.691000000    -6.121000000    -0.541000000
C     0.364000000    -6.457000000    -0.337000000
C    -0.553000000    -6.011000000    -1.252000000
H    -0.168000000    -5.562000000    -2.164000000
C    -0.017000000    -7.155000000     0.826000000
H     0.703000000    -7.588000000     1.516000000
C    -1.349000000    -7.399000000     1.005000000
H    -1.669000000    -7.942000000     1.891000000
C    -2.338000000    -7.044000000     0.034000000
H    -3.374000000    -7.375000000     0.057000000
C    -1.950000000    -6.301000000    -1.080000000
O    -2.897000000    -5.860000000    -1.956000000
C    -3.359000000    -4.598000000    -1.920000000
C    -3.945000000    -4.068000000    -3.043000000
H    -3.857000000    -4.574000000    -4.000000000
C    -4.594000000    -2.831000000    -2.960000000
O    -5.246000000    -2.356000000    -4.062000000
C    -5.627000000    -1.028000000    -4.274000000
C    -4.737000000    -0.080000000    -4.649000000
H    -3.662000000    -0.216000000    -4.562000000
C    -6.938000000    -0.817000000    -4.308000000
H    -7.595000000    -1.633000000    -4.018000000
C    -7.476000000     0.457000000    -4.647000000
H    -8.520000000     0.756000000    -4.589000000
C    -6.561000000     1.421000000    -5.040000000
H    -6.834000000     2.449000000    -5.265000000
C    -5.207000000     1.138000000    -5.055000000
O    -4.393000000     2.160000000    -5.447000000
C    -3.337000000     2.609000000    -4.747000000
C    -2.111000000     2.980000000    -5.397000000
H    -1.972000000     2.952000000    -6.475000000
C    -1.078000000     3.470000000    -4.675000000
O     0.153000000     3.772000000    -5.328000000
C     1.289000000     4.286000000    -4.673000000
C     2.394000000     3.505000000    -4.366000000
H     2.385000000     2.448000000    -4.619000000
C     1.281000000     5.661000000    -4.450000000
H     0.413000000     6.268000000    -4.692000000
C     2.410000000     6.246000000    -3.863000000
H     2.469000000     7.315000000    -3.678000000
C     3.540000000     5.525000000    -3.557000000
H     4.389000000     6.018000000    -3.089000000
C     3.516000000     4.145000000    -3.859000000
O     4.642000000     3.387000000    -3.542000000
C     4.793000000     2.836000000    -2.273000000
C     5.924000000     2.042000000    -2.083000000
H     6.582000000     1.897000000    -2.937000000
C     6.185000000     1.407000000    -0.884000000
O     7.232000000     0.481000000    -0.829000000
C     7.339000000    -0.641000000     0.013000000
C     8.390000000    -0.770000000     0.956000000
H     9.071000000     0.060000000     1.130000000
C     8.568000000    -1.950000000     1.625000000
H     9.405000000    -2.034000000     2.314000000
C     7.629000000    -3.031000000     1.441000000
H     7.744000000    -3.949000000     2.012000000
C     6.611000000    -2.877000000     0.541000000
C     6.482000000    -1.701000000    -0.207000000
H     5.728000000    -1.645000000    -0.988000000
C    -0.189000000    -1.913000000    -1.426000000
H    -0.501000000    -2.950000000    -1.525000000
C     0.218000000    -1.387000000    -0.200000000
H     0.306000000    -1.967000000     0.715000000
C     0.338000000     0.014000000    -0.158000000
H     0.508000000     0.512000000     0.785000000
C     0.126000000     0.812000000    -1.277000000
H     0.337000000     1.877000000    -1.214000000
C    -0.274000000     0.257000000    -2.459000000
H    -0.383000000     0.835000000    -3.373000000
C    -0.268000000    -1.113000000    -2.530000000
C    -0.446000000    -1.793000000    -3.885000000
O    -0.780000000    -1.107000000    -4.827000000
O    -0.047000000    -2.946000000    -4.029000000
O     1.627000000     3.130000000    -7.880000000
H     1.319000000     2.368000000    -7.389000000
H     1.470000000     3.871000000    -7.296000000
O    -2.800000000    -2.499000000    -5.756000000
H    -3.401000000    -2.166000000    -5.089000000
H    -2.015000000    -1.960000000    -5.661000000
O    -1.776000000    -0.730000000    -8.207000000
H    -1.148000000    -0.423000000    -8.860000000
H    -1.236000000    -1.011000000    -7.468000000
O     4.775000000    -2.747000000    -4.683000000
H     5.493000000    -3.236000000    -4.282000000
H     4.670000000    -1.976000000    -4.126000000
O     1.104000000    -6.586000000    -7.021000000
H     0.511000000    -6.168000000    -6.396000000
H     1.865000000    -6.837000000    -6.498000000
O    -0.919000000    -8.315000000    -5.280000000
H    -0.283000000    -8.948000000    -5.615000000
H    -0.393000000    -7.690000000    -4.781000000
O     2.344000000    -7.539000000    -4.846000000
H     2.407000000    -6.673000000    -4.444000000
H     3.222000000    -7.910000000    -4.755000000
O     5.440000000    -3.298000000    -7.541000000
H     6.352000000    -3.587000000    -7.534000000
H     5.275000000    -3.007000000    -6.644000000
O     2.890000000    -0.914000000    -6.026000000
H     3.144000000    -0.693000000    -5.130000000
H     3.442000000    -1.663000000    -6.253000000
O     0.403000000     0.631000000    -9.290000000
H     0.639000000     0.770000000    -8.373000000
H     1.238000000     0.475000000    -9.731000000
O    -4.473000000    -0.331000000    -8.052000000
H    -4.817000000     0.560000000    -8.111000000
H    -3.523000000    -0.225000000    -8.104000000
O     2.951000000    -0.880000000    -3.189000000
H     2.766000000    -0.299000000    -2.451000000
H     2.189000000    -1.459000000    -3.234000000
O    -0.429000000    -5.362000000    -5.040000000
H    -0.474000000    -4.470000000    -4.695000000
H    -1.216000000    -5.450000000    -5.578000000
O     0.665000000     0.631000000    -6.515000000
H     1.424000000     0.081000000    -6.321000000
H    -0.046000000     0.247000000    -6.003000000
O    -0.246000000    -4.544000000    -8.516000000
H    -0.280000000    -3.775000000    -7.948000000
H     0.171000000    -5.219000000    -7.980000000
O    -3.318000000    -3.334000000    -8.643000000
H    -3.571000000    -2.809000000    -7.883000000
H    -2.648000000    -2.810000000    -9.083000000
O     0.092000000    -2.462000000    -6.969000000
H     1.040000000    -2.335000000    -6.986000000
H    -0.176000000    -2.151000000    -6.104000000
O     2.781000000    -4.936000000    -3.943000000
H     3.207000000    -4.212000000    -4.402000000
H     1.981000000    -4.554000000    -3.583000000
O    -2.964000000    -5.172000000    -6.552000000
H    -2.730000000    -4.448000000    -5.972000000
H    -3.201000000    -4.750000000    -7.378000000
