215
-1465.24860
C    -4.839000000    -2.378000000    -1.062000000
H    -5.166000000    -1.389000000    -1.373000000
C    -4.141000000    -2.678000000     0.118000000
C    -3.520000000    -3.941000000     0.240000000
H    -2.968000000    -4.245000000     1.125000000
C    -3.918000000    -1.581000000     1.120000000
O    -5.019000000    -0.630000000     1.066000000
H    -2.980000000    -1.114000000     0.786000000
O    -3.821000000    -2.072000000     2.380000000
C    -2.776000000    -1.565000000     3.130000000
C    -1.500000000    -2.230000000     3.246000000
H    -1.327000000    -3.077000000     2.586000000
C    -0.517000000    -1.669000000     4.065000000
O     0.705000000    -2.282000000     4.103000000
C    -0.694000000    -0.476000000     4.768000000
C     0.443000000     0.230000000     5.565000000
H    -0.020000000     1.015000000     6.166000000
C     1.423000000     0.925000000     4.623000000
C     1.142000000     2.267000000     4.312000000
H     0.197000000     2.746000000     4.555000000
H     0.921000000    -0.519000000     6.200000000
C    -1.969000000     0.134000000     4.660000000
H    -2.174000000     1.055000000     5.200000000
C    -2.961000000    -0.380000000     3.899000000
C    -4.223000000     0.461000000     3.715000000
H    -4.239000000     1.278000000     4.438000000
H    -5.110000000    -0.160000000     3.860000000
C    -4.149000000     1.191000000     2.375000000
C    -3.622000000     2.481000000     2.292000000
H    -3.257000000     2.912000000     3.221000000
C    -4.505000000     0.600000000     1.110000000
C    -4.313000000     1.220000000    -0.068000000
H    -4.721000000     0.748000000    -0.958000000
C    -3.876000000     2.524000000    -0.118000000
O    -3.565000000     3.013000000    -1.369000000
C    -2.091000000     2.857000000    -1.684000000
C    -1.994000000     2.355000000    -3.086000000
C    -0.715000000     2.369000000    -3.608000000
H     0.093000000     2.802000000    -3.024000000
C    -3.041000000     1.781000000    -3.822000000
H    -4.040000000     1.821000000    -3.395000000
O    -1.406000000     4.123000000    -1.627000000
H    -1.683000000     2.135000000    -0.961000000
C    -3.546000000     3.162000000     1.061000000
C    -2.825000000     4.522000000     0.976000000
H    -2.979000000     5.074000000     1.905000000
H    -3.243000000     5.151000000     0.188000000
C    -1.328000000     4.392000000     0.831000000
C    -0.474000000     4.510000000     1.979000000
H    -0.945000000     4.768000000     2.924000000
C    -0.723000000     4.302000000    -0.434000000
C     0.641000000     4.331000000    -0.579000000
H     1.153000000     4.380000000    -1.537000000
C     1.405000000     4.249000000     0.558000000
O     2.821000000     4.136000000     0.344000000
C     3.510000000     2.867000000     0.673000000
C     4.557000000     2.575000000    -0.364000000
C     4.419000000     3.144000000    -1.622000000
H     3.631000000     3.838000000    -1.903000000
C     5.523000000     1.658000000    -0.182000000
H     5.666000000     1.187000000     0.787000000
O     3.963000000     2.852000000     1.992000000
H     2.742000000     2.084000000     0.597000000
C     0.862000000     4.349000000     1.841000000
C     1.738000000     4.365000000     3.047000000
H     1.275000000     5.092000000     3.716000000
H     2.644000000     4.903000000     2.758000000
C     1.996000000     2.906000000     3.438000000
C     3.137000000     2.239000000     2.917000000
C     3.482000000     0.976000000     3.284000000
H     4.378000000     0.588000000     2.806000000
C     2.572000000     0.262000000     4.029000000
O     2.751000000    -1.124000000     3.992000000
C     1.770000000    -1.830000000     3.263000000
H     1.375000000    -1.169000000     2.478000000
C     2.283000000    -2.964000000     2.380000000
C     1.590000000    -4.157000000     2.121000000
H     0.658000000    -4.298000000     2.662000000
C     3.534000000    -2.843000000     1.825000000
H     4.171000000    -1.977000000     1.986000000
C     4.071000000    -3.810000000     0.949000000
O     5.270000000    -3.713000000     0.304000000
C     3.268000000    -4.874000000     0.601000000
H     3.543000000    -5.561000000    -0.196000000
C     1.985000000    -5.076000000     1.213000000
O     1.244000000    -6.134000000     0.795000000
C    -0.068000000    -6.409000000     1.097000000
C    -0.970000000    -6.240000000     0.058000000
H    -0.716000000    -5.761000000    -0.884000000
C    -0.414000000    -6.981000000     2.285000000
H     0.227000000    -7.117000000     3.153000000
C    -1.735000000    -7.533000000     2.479000000
H    -1.974000000    -8.160000000     3.333000000
C    -2.594000000    -7.380000000     1.390000000
H    -3.624000000    -7.692000000     1.543000000
C    -2.248000000    -6.678000000     0.263000000
O    -3.248000000    -6.228000000    -0.609000000
C    -3.762000000    -4.907000000    -0.725000000
C    -4.577000000    -4.613000000    -1.820000000
H    -4.744000000    -5.399000000    -2.552000000
C    -5.136000000    -3.333000000    -2.029000000
O    -5.780000000    -3.131000000    -3.216000000
C    -5.853000000    -1.901000000    -3.793000000
C    -4.771000000    -1.229000000    -4.356000000
H    -3.811000000    -1.735000000    -4.282000000
C    -7.108000000    -1.334000000    -3.976000000
H    -7.968000000    -1.775000000    -3.479000000
C    -7.257000000    -0.112000000    -4.716000000
H    -8.267000000     0.252000000    -4.884000000
C    -6.159000000     0.606000000    -5.131000000
H    -6.297000000     1.594000000    -5.563000000
C    -4.885000000     0.001000000    -5.015000000
O    -3.864000000     0.617000000    -5.710000000
C    -2.811000000     1.244000000    -5.067000000
C    -1.529000000     1.256000000    -5.582000000
H    -1.318000000     0.702000000    -6.494000000
C    -0.501000000     1.800000000    -4.843000000
O     0.815000000     1.661000000    -5.310000000
C     1.749000000     2.714000000    -5.224000000
C     2.964000000     2.459000000    -4.531000000
H     3.282000000     1.498000000    -4.136000000
C     1.452000000     3.902000000    -5.744000000
H     0.483000000     4.006000000    -6.225000000
C     2.340000000     4.994000000    -5.582000000
H     2.171000000     5.996000000    -5.968000000
C     3.607000000     4.764000000    -5.066000000
H     4.371000000     5.537000000    -5.066000000
C     3.951000000     3.494000000    -4.595000000
O     5.103000000     3.348000000    -3.908000000
C     5.283000000     2.773000000    -2.606000000
C     6.402000000     1.895000000    -2.435000000
H     7.057000000     1.644000000    -3.265000000
C     6.517000000     1.340000000    -1.190000000
O     7.464000000     0.405000000    -0.832000000
C     7.263000000    -0.659000000     0.025000000
C     7.925000000    -0.678000000     1.325000000
H     8.484000000     0.210000000     1.611000000
C     7.695000000    -1.749000000     2.187000000
H     8.167000000    -1.752000000     3.166000000
C     6.813000000    -2.699000000     1.790000000
H     6.581000000    -3.535000000     2.445000000
C     6.143000000    -2.685000000     0.571000000
C     6.306000000    -1.641000000    -0.299000000
H     5.677000000    -1.630000000    -1.185000000
C     0.759000000    -2.401000000    -1.126000000
H     0.697000000    -3.485000000    -1.180000000
C    -0.332000000    -1.785000000    -0.525000000
H    -1.123000000    -2.417000000    -0.129000000
C    -0.414000000    -0.369000000    -0.559000000
H    -1.271000000     0.176000000    -0.189000000
C     0.669000000     0.330000000    -1.126000000
H     0.600000000     1.414000000    -1.075000000
C     1.638000000    -0.308000000    -1.793000000
H     2.374000000     0.281000000    -2.335000000
C     1.744000000    -1.691000000    -1.815000000
C     2.664000000    -2.412000000    -2.705000000
O     3.556000000    -1.843000000    -3.234000000
O     2.438000000    -3.512000000    -3.107000000
O     1.249000000    -7.702000000    -2.591000000
H     0.938000000    -8.594000000    -2.744000000
H     2.202000000    -7.783000000    -2.560000000
O     1.316000000    -1.454000000    -5.288000000
H     2.028000000    -1.816000000    -4.762000000
H     1.728000000    -0.761000000    -5.805000000
O    -1.686000000    -4.159000000    -4.612000000
H    -1.792000000    -3.217000000    -4.482000000
H    -0.799000000    -4.344000000    -4.306000000
O     5.948000000    -2.331000000    -6.792000000
H     6.311000000    -3.206000000    -6.657000000
H     5.176000000    -2.474000000    -7.340000000
O     6.748000000    -5.233000000    -4.839000000
H     7.417000000    -4.965000000    -5.469000000
H     6.427000000    -4.411000000    -4.468000000
O     0.468000000    -5.198000000    -3.445000000
H     1.193000000    -4.573000000    -3.463000000
H     0.842000000    -5.987000000    -3.052000000
O     5.517000000    -0.383000000    -4.583000000
H     4.655000000    -0.444000000    -4.173000000
H     5.433000000    -0.886000000    -5.394000000
O     3.061000000    -0.676000000    -7.422000000
H     3.057000000    -1.514000000    -7.883000000
H     3.988000000    -0.461000000    -7.322000000
O     4.135000000    -7.911000000    -2.499000000
H     4.944000000    -8.144000000    -2.042000000
H     4.257000000    -6.995000000    -2.748000000
O     5.984000000    -3.074000000    -3.576000000
H     6.624000000    -2.363000000    -3.559000000
H     5.136000000    -2.633000000    -3.621000000
O     0.334000000    -5.717000000    -7.085000000
H    -0.199000000    -5.942000000    -6.323000000
H     1.123000000    -5.320000000    -6.716000000
O    -1.265000000    -1.431000000    -3.802000000
H    -1.185000000    -1.193000000    -2.878000000
H    -0.367000000    -1.405000000    -4.134000000
O     4.389000000    -5.188000000    -2.880000000
H     3.541000000    -4.756000000    -2.980000000
H     5.031000000    -4.498000000    -3.052000000
O    -0.480000000    -2.760000000    -6.979000000
H    -0.171000000    -2.328000000    -6.183000000
H     0.127000000    -3.489000000    -7.107000000
O     2.290000000    -4.250000000    -5.772000000
H     3.037000000    -4.848000000    -5.747000000
H     2.398000000    -3.701000000    -4.995000000
O     4.034000000    -2.883000000    -8.550000000
H     3.446000000    -3.552000000    -8.199000000
H     4.125000000    -3.107000000    -9.476000000
O     7.174000000    -6.568000000     0.323000000
H     8.034000000    -6.150000000     0.274000000
H     6.556000000    -5.871000000     0.101000000
O     4.503000000    -5.817000000    -6.011000000
H     5.085000000    -5.897000000    -5.255000000
H     4.046000000    -6.657000000    -6.051000000
O     8.406000000    -0.945000000    -4.324000000
H     8.513000000    -1.704000000    -4.897000000
H     7.515000000    -0.639000000    -4.494000000
