215
-1474.48784
C     4.757000000    -2.726000000    -0.445000000
H     4.215000000    -3.668000000    -0.407000000
C     4.667000000    -1.724000000     0.555000000
C     5.380000000    -0.499000000     0.374000000
H     5.362000000     0.246000000     1.165000000
C     3.606000000    -1.789000000     1.653000000
O     3.396000000    -3.161000000     1.946000000
H     2.782000000    -1.255000000     1.156000000
O     4.008000000    -1.137000000     2.881000000
C     3.044000000    -0.380000000     3.552000000
C     2.957000000     1.014000000     3.287000000
H     3.594000000     1.476000000     2.537000000
C     1.884000000     1.757000000     3.731000000
O     1.777000000     3.114000000     3.408000000
C     1.017000000     1.192000000     4.675000000
C    -0.127000000     2.058000000     5.215000000
H    -0.498000000     1.654000000     6.159000000
C    -1.270000000     2.140000000     4.210000000
C    -2.291000000     1.196000000     4.200000000
H    -2.347000000     0.374000000     4.909000000
H     0.208000000     3.072000000     5.442000000
C     1.047000000    -0.166000000     4.958000000
H     0.364000000    -0.598000000     5.685000000
C     2.072000000    -0.914000000     4.350000000
C     2.134000000    -2.442000000     4.588000000
H     1.546000000    -2.709000000     5.468000000
H     3.139000000    -2.840000000     4.744000000
C     1.495000000    -3.185000000     3.378000000
C     0.148000000    -3.479000000     3.530000000
H    -0.370000000    -2.985000000     4.348000000
C     2.127000000    -3.572000000     2.197000000
C     1.429000000    -4.176000000     1.091000000
H     1.850000000    -4.486000000     0.138000000
C     0.027000000    -4.422000000     1.296000000
O    -0.802000000    -4.927000000     0.285000000
C    -1.520000000    -3.907000000    -0.522000000
C    -1.302000000    -3.982000000    -1.997000000
C    -2.311000000    -3.655000000    -2.877000000
H    -3.347000000    -3.510000000    -2.581000000
C     0.002000000    -4.298000000    -2.473000000
H     0.790000000    -4.580000000    -1.780000000
O    -2.939000000    -4.079000000    -0.180000000
H    -1.264000000    -2.920000000    -0.110000000
C    -0.591000000    -4.141000000     2.519000000
C    -2.111000000    -4.304000000     2.672000000
H    -2.277000000    -4.541000000     3.725000000
H    -2.344000000    -5.220000000     2.127000000
C    -3.021000000    -3.192000000     2.141000000
C    -3.295000000    -2.153000000     2.968000000
H    -2.818000000    -2.217000000     3.943000000
C    -3.377000000    -3.213000000     0.803000000
C    -4.037000000    -2.110000000     0.294000000
H    -4.413000000    -2.081000000    -0.726000000
C    -4.334000000    -1.039000000     1.072000000
O    -4.947000000     0.023000000     0.410000000
C    -4.047000000     1.158000000     0.191000000
C    -4.169000000     1.789000000    -1.224000000
C    -4.641000000     0.966000000    -2.246000000
H    -4.935000000    -0.069000000    -2.089000000
C    -3.885000000     3.101000000    -1.485000000
H    -3.519000000     3.795000000    -0.733000000
O    -4.209000000     2.117000000     1.221000000
H    -3.045000000     0.708000000     0.239000000
C    -3.969000000    -1.062000000     2.449000000
C    -4.251000000     0.144000000     3.376000000
H    -4.469000000    -0.100000000     4.418000000
H    -5.201000000     0.525000000     2.995000000
C    -3.311000000     1.167000000     3.265000000
C    -3.341000000     2.196000000     2.314000000
C    -2.303000000     3.088000000     2.231000000
H    -2.345000000     3.825000000     1.433000000
C    -1.331000000     3.152000000     3.215000000
O    -0.286000000     4.028000000     2.919000000
C     0.836000000     3.410000000     2.294000000
H     0.583000000     2.446000000     1.829000000
C     1.430000000     4.355000000     1.277000000
C     2.732000000     4.143000000     0.851000000
H     3.407000000     3.569000000     1.481000000
C     0.569000000     5.200000000     0.541000000
H    -0.448000000     5.393000000     0.871000000
C     1.028000000     5.891000000    -0.604000000
O     0.263000000     6.816000000    -1.256000000
C     2.315000000     5.694000000    -1.004000000
H     2.784000000     6.210000000    -1.838000000
C     3.162000000     4.809000000    -0.305000000
O     4.384000000     4.636000000    -0.818000000
C     5.370000000     3.913000000    -0.194000000
C     5.853000000     2.811000000    -0.906000000
H     5.451000000     2.676000000    -1.907000000
C     5.960000000     4.300000000     0.997000000
H     5.523000000     5.148000000     1.520000000
C     6.995000000     3.475000000     1.573000000
H     7.296000000     3.690000000     2.595000000
C     7.344000000     2.312000000     0.900000000
H     8.087000000     1.678000000     1.376000000
C     6.801000000     2.013000000    -0.346000000
O     7.083000000     0.764000000    -0.870000000
C     6.236000000    -0.321000000    -0.733000000
C     6.350000000    -1.373000000    -1.637000000
H     7.176000000    -1.364000000    -2.344000000
C     5.538000000    -2.470000000    -1.578000000
O     5.762000000    -3.460000000    -2.531000000
C     4.767000000    -4.323000000    -2.769000000
C     3.626000000    -3.887000000    -3.438000000
H     3.544000000    -2.855000000    -3.770000000
C     4.808000000    -5.651000000    -2.377000000
H     5.712000000    -6.044000000    -1.919000000
C     3.730000000    -6.503000000    -2.492000000
H     3.729000000    -7.534000000    -2.146000000
C     2.622000000    -6.065000000    -3.150000000
H     1.761000000    -6.670000000    -3.421000000
C     2.612000000    -4.824000000    -3.667000000
O     1.479000000    -4.455000000    -4.431000000
C     0.239000000    -4.372000000    -3.842000000
C    -0.837000000    -4.069000000    -4.710000000
H    -0.722000000    -4.007000000    -5.789000000
C    -2.083000000    -3.823000000    -4.232000000
O    -3.056000000    -3.644000000    -5.148000000
C    -4.109000000    -2.811000000    -4.942000000
C    -4.035000000    -1.419000000    -4.839000000
H    -3.042000000    -0.977000000    -4.849000000
C    -5.321000000    -3.379000000    -4.720000000
H    -5.329000000    -4.461000000    -4.609000000
C    -6.483000000    -2.640000000    -4.587000000
H    -7.463000000    -3.110000000    -4.549000000
C    -6.435000000    -1.235000000    -4.554000000
H    -7.350000000    -0.675000000    -4.375000000
C    -5.189000000    -0.619000000    -4.575000000
O    -5.080000000     0.762000000    -4.619000000
C    -4.739000000     1.511000000    -3.516000000
C    -4.399000000     2.856000000    -3.820000000
H    -4.515000000     3.303000000    -4.804000000
C    -4.024000000     3.678000000    -2.762000000
O    -3.803000000     5.060000000    -2.928000000
C    -3.151000000     5.921000000    -2.058000000
C    -3.880000000     6.778000000    -1.230000000
H    -4.958000000     6.694000000    -1.343000000
C    -3.224000000     7.680000000    -0.435000000
H    -3.767000000     8.335000000     0.241000000
C    -1.837000000     7.601000000    -0.435000000
H    -1.315000000     8.320000000     0.191000000
C    -1.117000000     6.695000000    -1.216000000
C    -1.741000000     5.858000000    -2.069000000
H    -1.169000000     5.244000000    -2.761000000
C    -0.651000000    -0.285000000    -2.251000000
H    -1.238000000    -0.586000000    -3.115000000
C    -1.242000000    -0.489000000    -1.036000000
H    -2.233000000    -0.914000000    -0.898000000
C    -0.543000000    -0.086000000     0.147000000
H    -0.926000000    -0.445000000     1.162000000
C     0.701000000     0.488000000     0.075000000
H     1.191000000     0.705000000     1.020000000
C     1.322000000     0.713000000    -1.184000000
H     2.310000000     1.165000000    -1.227000000
C     0.619000000     0.373000000    -2.387000000
C     1.138000000     0.753000000    -3.720000000
O     2.267000000     1.183000000    -3.797000000
O     0.455000000     0.640000000    -4.734000000
O    -1.813000000     3.607000000    -7.434000000
H    -2.100000000     3.449000000    -8.333000000
H    -1.915000000     2.761000000    -6.998000000
O     4.216000000    -0.099000000    -5.160000000
H     4.848000000     0.617000000    -5.100000000
H     3.472000000     0.193000000    -4.634000000
O     6.682000000     0.133000000    -7.648000000
H     5.850000000     0.309000000    -8.087000000
H     6.747000000     0.811000000    -6.976000000
O     2.972000000     3.799000000    -4.586000000
H     3.103000000     3.093000000    -3.954000000
H     2.422000000     3.412000000    -5.267000000
O     2.158000000     6.296000000    -4.211000000
H     2.893000000     6.821000000    -4.529000000
H     2.564000000     5.500000000    -3.867000000
O     5.858000000     5.555000000    -5.042000000
H     6.021000000     5.402000000    -4.111000000
H     5.063000000     5.056000000    -5.232000000
O     2.216000000     2.168000000    -9.052000000
H     1.396000000     2.115000000    -9.543000000
H     1.944000000     2.280000000    -8.142000000
O     1.609000000    -1.301000000    -6.290000000
H     2.464000000    -0.903000000    -6.127000000
H     1.022000000    -0.871000000    -5.669000000
O     4.743000000    -2.759000000    -6.000000000
H     5.631000000    -2.881000000    -5.664000000
H     4.581000000    -1.820000000    -5.914000000
O     4.761000000     1.067000000    -9.119000000
H     3.815000000     1.207000000    -9.148000000
H     5.119000000     1.907000000    -8.830000000
O     1.358000000     2.549000000    -6.525000000
H     0.471000000     2.876000000    -6.674000000
H     1.256000000     1.881000000    -5.847000000
O     0.380000000    -0.374000000    -8.879000000
H    -0.254000000     0.198000000    -8.447000000
H     0.855000000    -0.792000000    -8.161000000
O     6.575000000     2.122000000    -5.884000000
H     6.895000000     1.976000000    -4.993000000
H     7.086000000     2.865000000    -6.204000000
O     2.187000000    -3.906000000    -7.279000000
H     1.741000000    -3.106000000    -7.002000000
H     3.089000000    -3.632000000    -7.444000000
O     4.914000000     3.705000000    -8.043000000
H     4.772000000     3.109000000    -7.307000000
H     4.111000000     4.223000000    -8.091000000
O     4.206000000    -1.755000000    -9.566000000
H     4.545000000    -1.257000000    -8.821000000
H     4.603000000    -1.340000000   -10.331000000
O    -1.277000000     0.834000000    -6.755000000
H    -0.689000000     0.903000000    -6.003000000
H    -1.787000000     0.042000000    -6.588000000
O    -1.429000000     6.089000000    -6.220000000
H    -0.520000000     6.389000000    -6.244000000
H    -1.446000000     5.333000000    -6.807000000
O     2.581000000     5.109000000    -7.723000000
H     1.982000000     5.806000000    -7.456000000
H     2.223000000     4.317000000    -7.322000000
