215
-1443.94714
C    -4.490000000    -3.017000000    -1.184000000
H    -5.183000000    -2.234000000    -1.480000000
C    -3.715000000    -3.022000000    -0.043000000
C    -2.969000000    -4.183000000     0.243000000
H    -2.396000000    -4.399000000     1.141000000
C    -3.680000000    -1.838000000     0.900000000
O    -4.773000000    -0.983000000     0.604000000
H    -2.729000000    -1.306000000     0.750000000
O    -3.721000000    -2.323000000     2.210000000
C    -2.933000000    -1.713000000     3.132000000
C    -1.744000000    -2.392000000     3.502000000
H    -1.529000000    -3.381000000     3.105000000
C    -0.863000000    -1.729000000     4.293000000
O     0.336000000    -2.329000000     4.493000000
C    -1.104000000    -0.441000000     4.789000000
C    -0.014000000     0.323000000     5.562000000
H    -0.377000000     1.137000000     6.194000000
C     0.979000000     0.930000000     4.684000000
C     0.775000000     2.280000000     4.381000000
H    -0.072000000     2.831000000     4.781000000
H     0.461000000    -0.341000000     6.287000000
C    -2.289000000     0.193000000     4.485000000
H    -2.574000000     1.138000000     4.940000000
C    -3.201000000    -0.474000000     3.563000000
C    -4.599000000     0.134000000     3.263000000
H    -4.923000000     0.600000000     4.195000000
H    -5.364000000    -0.639000000     3.160000000
C    -4.402000000     0.948000000     1.970000000
C    -3.959000000     2.290000000     2.050000000
H    -3.639000000     2.733000000     2.990000000
C    -4.567000000     0.347000000     0.765000000
C    -4.461000000     1.086000000    -0.400000000
H    -4.615000000     0.559000000    -1.338000000
C    -3.962000000     2.366000000    -0.355000000
O    -3.744000000     3.065000000    -1.515000000
C    -2.402000000     3.273000000    -1.949000000
C    -2.012000000     2.780000000    -3.318000000
C    -0.926000000     3.297000000    -3.958000000
H    -0.400000000     4.124000000    -3.488000000
C    -2.710000000     1.756000000    -3.925000000
H    -3.633000000     1.445000000    -3.442000000
O    -1.996000000     4.628000000    -1.576000000
H    -1.839000000     2.596000000    -1.291000000
C    -3.763000000     2.966000000     0.882000000
C    -3.153000000     4.405000000     0.935000000
H    -3.573000000     4.953000000     1.781000000
H    -3.679000000     5.024000000     0.206000000
C    -1.643000000     4.538000000     0.769000000
C    -0.855000000     4.434000000     1.904000000
H    -1.356000000     4.411000000     2.868000000
C    -1.112000000     4.676000000    -0.479000000
C     0.263000000     4.667000000    -0.651000000
H     0.785000000     4.832000000    -1.590000000
C     1.062000000     4.496000000     0.524000000
O     2.465000000     4.409000000     0.348000000
C     3.002000000     3.021000000     0.577000000
C     4.230000000     2.785000000    -0.303000000
C     4.056000000     3.246000000    -1.578000000
H     3.176000000     3.841000000    -1.807000000
C     5.313000000     2.002000000     0.055000000
H     5.426000000     1.670000000     1.084000000
O     3.439000000     2.804000000     1.947000000
H     2.194000000     2.323000000     0.314000000
C     0.487000000     4.357000000     1.787000000
C     1.288000000     4.390000000     3.050000000
H     0.651000000     4.946000000     3.741000000
H     2.248000000     4.888000000     2.897000000
C     1.590000000     2.967000000     3.498000000
C     2.590000000     2.261000000     2.838000000
C     2.772000000     0.978000000     3.200000000
H     3.510000000     0.476000000     2.579000000
C     2.054000000     0.256000000     4.138000000
O     2.319000000    -1.091000000     4.268000000
C     1.421000000    -1.937000000     3.554000000
H     1.053000000    -1.240000000     2.787000000
C     2.125000000    -3.092000000     2.898000000
C     1.622000000    -4.422000000     2.873000000
H     0.716000000    -4.711000000     3.400000000
C     3.152000000    -2.726000000     2.001000000
H     3.465000000    -1.689000000     1.900000000
C     3.743000000    -3.691000000     1.185000000
O     4.541000000    -3.265000000     0.162000000
C     3.303000000    -5.012000000     1.335000000
H     3.705000000    -5.788000000     0.689000000
C     2.272000000    -5.369000000     2.126000000
O     1.832000000    -6.669000000     2.114000000
C     0.490000000    -7.001000000     1.875000000
C    -0.237000000    -6.374000000     0.902000000
H     0.246000000    -5.644000000     0.257000000
C    -0.137000000    -7.860000000     2.780000000
H     0.459000000    -8.291000000     3.580000000
C    -1.508000000    -8.202000000     2.623000000
H    -2.059000000    -8.922000000     3.222000000
C    -2.126000000    -7.672000000     1.517000000
H    -3.150000000    -7.894000000     1.229000000
C    -1.528000000    -6.777000000     0.699000000
O    -2.192000000    -6.316000000    -0.449000000
C    -2.974000000    -5.205000000    -0.666000000
C    -3.563000000    -5.034000000    -1.931000000
H    -3.424000000    -5.767000000    -2.722000000
C    -4.391000000    -3.942000000    -2.182000000
O    -4.912000000    -3.740000000    -3.411000000
C    -4.835000000    -2.508000000    -4.092000000
C    -3.727000000    -1.845000000    -4.613000000
H    -2.753000000    -2.309000000    -4.481000000
C    -6.091000000    -1.864000000    -4.219000000
H    -6.976000000    -2.271000000    -3.737000000
C    -6.241000000    -0.737000000    -5.004000000
H    -7.195000000    -0.230000000    -5.125000000
C    -5.157000000    -0.080000000    -5.474000000
H    -5.319000000     0.884000000    -5.948000000
C    -3.842000000    -0.574000000    -5.260000000
O    -2.767000000     0.115000000    -5.769000000
C    -2.267000000     1.217000000    -5.110000000
C    -1.258000000     1.912000000    -5.868000000
H    -0.915000000     1.481000000    -6.806000000
C    -0.531000000     2.948000000    -5.258000000
O     0.608000000     3.482000000    -5.870000000
C     1.569000000     4.204000000    -5.271000000
C     2.720000000     3.503000000    -4.894000000
H     2.798000000     2.434000000    -5.078000000
C     1.522000000     5.557000000    -5.123000000
H     0.673000000     6.138000000    -5.476000000
C     2.513000000     6.193000000    -4.458000000
H     2.380000000     7.266000000    -4.343000000
C     3.685000000     5.537000000    -4.085000000
H     4.511000000     6.136000000    -3.709000000
C     3.768000000     4.162000000    -4.229000000
O     4.929000000     3.479000000    -3.825000000
C     4.965000000     2.886000000    -2.572000000
C     6.104000000     2.182000000    -2.213000000
H     6.873000000     1.862000000    -2.911000000
C     6.230000000     1.664000000    -0.899000000
O     7.211000000     0.810000000    -0.573000000
C     7.007000000    -0.479000000     0.016000000
C     8.052000000    -1.147000000     0.634000000
H     8.962000000    -0.581000000     0.815000000
C     8.020000000    -2.467000000     0.873000000
H     8.784000000    -2.992000000     1.441000000
C     6.816000000    -3.162000000     0.806000000
H     6.873000000    -4.211000000     1.086000000
C     5.699000000    -2.521000000     0.287000000
C     5.791000000    -1.180000000    -0.196000000
H     5.011000000    -0.750000000    -0.820000000
C     1.279000000    -2.433000000    -1.083000000
H     1.217000000    -3.493000000    -0.851000000
C     0.263000000    -1.606000000    -0.636000000
H    -0.522000000    -2.083000000    -0.054000000
C     0.267000000    -0.281000000    -0.908000000
H    -0.507000000     0.357000000    -0.513000000
C     1.288000000     0.237000000    -1.710000000
H     1.396000000     1.307000000    -1.871000000
C     2.295000000    -0.580000000    -2.156000000
H     3.142000000    -0.063000000    -2.601000000
C     2.313000000    -1.970000000    -1.941000000
C     3.341000000    -2.913000000    -2.694000000
O     4.227000000    -2.436000000    -3.417000000
O     3.252000000    -4.120000000    -2.554000000
O     6.390000000     1.280000000    -6.278000000
H     6.307000000     0.692000000    -5.527000000
H     5.885000000     0.855000000    -6.972000000
O     2.331000000    -1.718000000    -5.285000000
H     2.197000000    -2.515000000    -5.798000000
H     3.052000000    -1.933000000    -4.692000000
O     1.909000000    -7.253000000    -7.107000000
H     0.978000000    -7.399000000    -6.938000000
H     2.270000000    -7.004000000    -6.256000000
O    -0.607000000    -4.478000000    -4.512000000
H    -0.332000000    -3.577000000    -4.340000000
H    -0.169000000    -4.995000000    -3.835000000
O     7.980000000    -1.900000000    -3.577000000
H     7.973000000    -1.557000000    -4.471000000
H     7.614000000    -2.781000000    -3.655000000
O     1.289000000    -5.640000000    -2.462000000
H     2.086000000    -5.111000000    -2.419000000
H     1.475000000    -6.398000000    -1.908000000
O     5.338000000    -6.112000000    -6.822000000
H     4.778000000    -5.754000000    -6.134000000
H     5.017000000    -5.707000000    -7.627000000
O     4.510000000    -3.087000000    -8.539000000
H     5.168000000    -3.302000000    -9.200000000
H     4.637000000    -2.153000000    -8.369000000
O     5.800000000    -0.325000000    -4.193000000
H     6.503000000    -0.629000000    -3.619000000
H     5.075000000    -0.925000000    -4.021000000
O     2.721000000     0.276000000    -7.422000000
H     3.625000000     0.077000000    -7.666000000
H     2.584000000    -0.202000000    -6.604000000
O     1.652000000    -8.609000000    -3.302000000
H     1.855000000    -9.271000000    -3.964000000
H     2.506000000    -8.338000000    -2.966000000
O     6.102000000    -3.826000000    -4.605000000
H     6.176000000    -3.416000000    -5.466000000
H     5.444000000    -3.303000000    -4.146000000
O    -0.076000000    -1.591000000    -4.023000000
H    -0.228000000    -1.160000000    -3.182000000
H     0.819000000    -1.347000000    -4.259000000
O     5.463000000    -5.489000000    -2.278000000
H     4.775000000    -4.830000000    -2.186000000
H     5.995000000    -5.179000000    -3.010000000
O     4.175000000    -7.956000000    -2.590000000
H     4.720000000    -8.272000000    -3.310000000
H     4.466000000    -7.056000000    -2.445000000
O     2.666000000    -5.589000000    -5.023000000
H     3.232000000    -5.134000000    -4.399000000
H     1.990000000    -5.996000000    -4.480000000
O     8.475000000    -5.647000000    -2.601000000
H     8.336000000    -6.057000000    -3.454000000
H     9.301000000    -5.172000000    -2.694000000
O     1.972000000    -3.837000000    -7.208000000
H     2.254000000    -4.504000000    -6.581000000
H     2.644000000    -3.851000000    -7.890000000
O     6.903000000    -6.454000000    -0.236000000
H     7.783000000    -6.121000000    -0.413000000
H     6.389000000    -6.190000000    -0.998000000
