215
-1448.36459
C    -3.825000000    -3.173000000    -1.731000000
H    -4.331000000    -2.232000000    -1.931000000
C    -3.280000000    -3.325000000    -0.414000000
C    -2.529000000    -4.492000000    -0.095000000
H    -2.061000000    -4.495000000     0.886000000
C    -3.496000000    -2.306000000     0.686000000
O    -4.701000000    -1.500000000     0.495000000
H    -2.610000000    -1.658000000     0.612000000
O    -3.520000000    -2.924000000     2.013000000
C    -2.906000000    -2.253000000     3.079000000
C    -1.666000000    -2.731000000     3.460000000
H    -1.333000000    -3.678000000     3.045000000
C    -0.787000000    -1.939000000     4.237000000
O     0.562000000    -2.308000000     4.454000000
C    -1.200000000    -0.630000000     4.652000000
C    -0.225000000     0.149000000     5.456000000
H    -0.740000000     0.713000000     6.236000000
C     0.686000000     1.098000000     4.664000000
C     0.287000000     2.412000000     4.405000000
H    -0.680000000     2.769000000     4.749000000
H     0.354000000    -0.522000000     6.094000000
C    -2.458000000    -0.180000000     4.354000000
H    -2.678000000     0.867000000     4.546000000
C    -3.283000000    -0.962000000     3.555000000
C    -4.566000000    -0.262000000     3.085000000
H    -5.001000000     0.367000000     3.864000000
H    -5.375000000    -0.992000000     3.024000000
C    -4.301000000     0.506000000     1.853000000
C    -4.116000000     1.877000000     1.804000000
H    -4.248000000     2.399000000     2.748000000
C    -4.461000000    -0.119000000     0.593000000
C    -4.380000000     0.621000000    -0.598000000
H    -4.509000000     0.171000000    -1.579000000
C    -4.045000000     1.958000000    -0.602000000
O    -3.843000000     2.674000000    -1.787000000
C    -2.465000000     2.747000000    -2.059000000
C    -2.204000000     2.279000000    -3.482000000
C    -0.953000000     2.433000000    -3.926000000
H    -0.217000000     2.793000000    -3.211000000
C    -3.124000000     1.572000000    -4.246000000
H    -4.091000000     1.346000000    -3.804000000
O    -1.982000000     4.048000000    -1.781000000
H    -1.819000000     2.022000000    -1.541000000
C    -3.977000000     2.612000000     0.661000000
C    -3.690000000     4.079000000     0.637000000
H    -4.062000000     4.498000000     1.574000000
H    -4.174000000     4.566000000    -0.212000000
C    -2.147000000     4.316000000     0.596000000
C    -1.480000000     4.512000000     1.765000000
H    -2.089000000     4.566000000     2.663000000
C    -1.414000000     4.266000000    -0.536000000
C    -0.103000000     4.577000000    -0.586000000
H     0.429000000     4.550000000    -1.533000000
C     0.608000000     4.705000000     0.602000000
O     1.968000000     4.822000000     0.496000000
C     2.698000000     3.577000000     0.750000000
C     3.862000000     3.315000000    -0.194000000
C     3.777000000     3.747000000    -1.494000000
H     2.875000000     4.256000000    -1.825000000
C     4.945000000     2.560000000     0.168000000
H     4.956000000     2.209000000     1.197000000
O     3.108000000     3.413000000     2.139000000
H     1.977000000     2.769000000     0.558000000
C    -0.087000000     4.622000000     1.842000000
C     0.635000000     4.578000000     3.215000000
H    -0.114000000     4.967000000     3.908000000
H     1.532000000     5.198000000     3.270000000
C     1.065000000     3.170000000     3.555000000
C     2.311000000     2.693000000     3.054000000
C     2.696000000     1.414000000     3.332000000
H     3.692000000     1.071000000     3.061000000
C     1.847000000     0.637000000     4.115000000
O     2.291000000    -0.669000000     4.334000000
C     1.508000000    -1.684000000     3.610000000
H     0.895000000    -1.253000000     2.805000000
C     2.487000000    -2.749000000     3.139000000
C     2.089000000    -4.069000000     2.778000000
H     1.161000000    -4.492000000     3.154000000
C     3.775000000    -2.340000000     2.709000000
H     3.995000000    -1.276000000     2.692000000
C     4.616000000    -3.222000000     2.095000000
O     5.662000000    -2.755000000     1.345000000
C     4.210000000    -4.508000000     1.739000000
H     4.887000000    -5.085000000     1.114000000
C     2.917000000    -4.966000000     2.097000000
O     2.470000000    -6.109000000     1.449000000
C     1.166000000    -6.497000000     1.490000000
C     0.413000000    -6.550000000     0.353000000
H     0.834000000    -5.954000000    -0.452000000
C     0.721000000    -7.056000000     2.680000000
H     1.372000000    -7.209000000     3.537000000
C    -0.646000000    -7.476000000     2.741000000
H    -1.074000000    -7.911000000     3.641000000
C    -1.496000000    -7.342000000     1.578000000
H    -2.565000000    -7.539000000     1.561000000
C    -0.933000000    -6.926000000     0.405000000
O    -1.696000000    -6.751000000    -0.698000000
C    -2.371000000    -5.524000000    -1.011000000
C    -2.865000000    -5.344000000    -2.283000000
H    -2.731000000    -6.024000000    -3.120000000
C    -3.550000000    -4.196000000    -2.658000000
O    -4.003000000    -4.158000000    -4.013000000
C    -4.623000000    -3.031000000    -4.554000000
C    -3.761000000    -2.007000000    -5.053000000
H    -2.701000000    -2.216000000    -5.171000000
C    -5.973000000    -2.859000000    -4.491000000
H    -6.501000000    -3.652000000    -3.970000000
C    -6.605000000    -1.850000000    -5.132000000
H    -7.670000000    -1.632000000    -5.111000000
C    -5.776000000    -0.839000000    -5.748000000
H    -6.279000000     0.010000000    -6.205000000
C    -4.353000000    -0.906000000    -5.654000000
O    -3.518000000     0.124000000    -6.208000000
C    -2.671000000     0.943000000    -5.384000000
C    -1.387000000     1.280000000    -5.925000000
H    -1.087000000     0.685000000    -6.783000000
C    -0.552000000     2.053000000    -5.224000000
O     0.619000000     2.257000000    -5.791000000
C     1.489000000     3.244000000    -5.435000000
C     2.654000000     3.041000000    -4.747000000
H     2.957000000     2.035000000    -4.468000000
C     1.111000000     4.633000000    -5.768000000
H     0.186000000     4.832000000    -6.304000000
C     1.985000000     5.679000000    -5.465000000
H     1.579000000     6.636000000    -5.782000000
C     3.142000000     5.379000000    -4.775000000
H     3.696000000     6.254000000    -4.444000000
C     3.425000000     4.125000000    -4.352000000
O     4.643000000     3.854000000    -3.724000000
C     4.754000000     3.409000000    -2.402000000
C     5.862000000     2.734000000    -2.029000000
H     6.674000000     2.432000000    -2.685000000
C     5.946000000     2.247000000    -0.740000000
O     7.024000000     1.551000000    -0.317000000
C     6.991000000     0.624000000     0.737000000
C     7.952000000     0.715000000     1.726000000
H     8.650000000     1.545000000     1.808000000
C     7.979000000    -0.338000000     2.675000000
H     8.631000000    -0.256000000     3.540000000
C     7.065000000    -1.419000000     2.661000000
H     7.128000000    -2.227000000     3.384000000
C     6.279000000    -1.576000000     1.569000000
C     6.241000000    -0.554000000     0.600000000
H     5.673000000    -0.704000000    -0.315000000
C     0.531000000    -2.334000000    -1.005000000
H    -0.313000000    -2.999000000    -1.172000000
C     0.146000000    -1.096000000    -0.510000000
H    -0.915000000    -0.863000000    -0.452000000
C     1.070000000    -0.161000000    -0.127000000
H     0.816000000     0.875000000     0.270000000
C     2.441000000    -0.522000000    -0.199000000
H     3.182000000     0.166000000     0.201000000
C     2.855000000    -1.804000000    -0.677000000
H     3.885000000    -2.120000000    -0.816000000
C     1.889000000    -2.677000000    -1.221000000
C     2.275000000    -3.865000000    -2.092000000
O     3.354000000    -4.385000000    -1.868000000
O     1.614000000    -4.177000000    -3.024000000
O     3.928000000    -6.903000000    -2.162000000
H     4.813000000    -6.882000000    -1.799000000
H     3.606000000    -6.007000000    -2.059000000
O     1.943000000    -0.037000000    -6.387000000
H     1.310000000     0.087000000    -5.680000000
H     1.628000000    -0.807000000    -6.859000000
O    -1.641000000    -4.763000000    -5.958000000
H    -1.490000000    -4.108000000    -5.277000000
H    -0.916000000    -5.381000000    -5.860000000
O     2.792000000   -10.507000000    -3.493000000
H     2.337000000   -10.404000000    -4.329000000
H     3.129000000    -9.634000000    -3.295000000
O     4.544000000    -8.349000000     2.376000000
H     4.306000000    -7.703000000     1.710000000
H     3.890000000    -9.041000000     2.282000000
O     0.401000000    -2.538000000    -4.669000000
H     0.588000000    -1.663000000    -4.328000000
H     0.807000000    -3.133000000    -4.039000000
O     5.186000000    -1.082000000    -2.705000000
H     5.745000000    -0.787000000    -3.424000000
H     4.635000000    -0.325000000    -2.504000000
O     4.524000000    -3.567000000    -4.165000000
H     3.825000000    -3.871000000    -3.587000000
H     4.774000000    -2.713000000    -3.812000000
O    -0.622000000    -8.419000000    -4.868000000
H    -0.225000000    -7.550000000    -4.806000000
H    -0.846000000    -8.645000000    -3.965000000
O     5.994000000    -3.617000000    -1.412000000
H     5.899000000    -2.677000000    -1.567000000
H     5.173000000    -3.995000000    -1.726000000
O     1.167000000     0.062000000    -3.197000000
H     1.250000000    -0.228000000    -2.288000000
H     1.039000000     1.008000000    -3.135000000
O     0.772000000    -5.894000000    -5.079000000
H     0.870000000    -5.381000000    -4.277000000
H     1.494000000    -5.605000000    -5.638000000
O     0.882000000    -2.962000000    -7.617000000
H     0.928000000    -2.918000000    -6.662000000
H     0.543000000    -3.838000000    -7.800000000
O     6.212000000    -5.854000000    -3.674000000
H     6.068000000    -6.123000000    -4.581000000
H     5.574000000    -5.155000000    -3.528000000
O     3.194000000    -5.361000000    -6.057000000
H     3.817000000    -6.071000000    -5.900000000
H     3.441000000    -4.683000000    -5.428000000
O     8.626000000    -4.360000000    -3.433000000
H     7.839000000    -4.885000000    -3.574000000
H     8.669000000    -3.782000000    -4.194000000
O     3.022000000    -8.917000000    -0.292000000
H     3.966000000    -9.057000000    -0.369000000
H     2.875000000    -8.056000000    -0.685000000
O     7.990000000    -4.976000000    -0.083000000
H     7.168000000    -4.602000000    -0.400000000
H     8.647000000    -4.308000000    -0.274000000
O     3.479000000    -7.670000000    -4.827000000
H     3.578000000    -7.370000000    -3.924000000
H     2.572000000    -7.461000000    -5.052000000
