215
-1431.92779
C     4.332000000    -2.132000000    -0.551000000
H     3.439000000    -2.743000000    -0.658000000
C     4.602000000    -1.495000000     0.652000000
C     5.738000000    -0.610000000     0.648000000
H     5.998000000    -0.036000000     1.533000000
C     3.607000000    -1.611000000     1.765000000
O     3.190000000    -2.937000000     1.880000000
H     2.759000000    -0.991000000     1.439000000
O     4.105000000    -1.093000000     3.002000000
C     3.304000000    -0.269000000     3.699000000
C     3.407000000     1.115000000     3.543000000
H     4.208000000     1.548000000     2.949000000
C     2.351000000     1.955000000     3.976000000
O     2.172000000     3.206000000     3.503000000
C     1.217000000     1.336000000     4.614000000
C    -0.060000000     2.107000000     5.111000000
H    -0.463000000     1.751000000     6.062000000
C    -1.151000000     2.157000000     4.076000000
C    -2.318000000     1.357000000     4.181000000
H    -2.347000000     0.670000000     5.023000000
H     0.291000000     3.072000000     5.484000000
C     1.146000000    -0.053000000     4.810000000
H     0.265000000    -0.510000000     5.253000000
C     2.165000000    -0.780000000     4.341000000
C     2.026000000    -2.294000000     4.566000000
H     1.508000000    -2.522000000     5.499000000
H     3.022000000    -2.743000000     4.598000000
C     1.343000000    -2.936000000     3.442000000
C    -0.029000000    -3.307000000     3.695000000
H    -0.541000000    -3.010000000     4.607000000
C     1.959000000    -3.308000000     2.255000000
C     1.205000000    -3.892000000     1.250000000
H     1.675000000    -4.034000000     0.280000000
C    -0.100000000    -4.117000000     1.420000000
O    -0.733000000    -4.742000000     0.347000000
C    -1.605000000    -3.887000000    -0.430000000
C    -1.444000000    -3.979000000    -1.965000000
C    -2.523000000    -3.741000000    -2.826000000
H    -3.444000000    -3.321000000    -2.429000000
C    -0.258000000    -4.367000000    -2.553000000
H     0.525000000    -4.412000000    -1.801000000
O    -2.996000000    -4.011000000     0.048000000
H    -1.237000000    -2.853000000    -0.348000000
C    -0.793000000    -3.809000000     2.626000000
C    -2.280000000    -4.146000000     2.807000000
H    -2.533000000    -4.308000000     3.857000000
H    -2.511000000    -5.104000000     2.337000000
C    -3.122000000    -3.039000000     2.190000000
C    -3.477000000    -1.942000000     2.992000000
H    -3.064000000    -1.890000000     3.996000000
C    -3.334000000    -3.022000000     0.851000000
C    -4.048000000    -1.910000000     0.313000000
H    -4.319000000    -1.879000000    -0.739000000
C    -4.600000000    -0.910000000     1.124000000
O    -5.105000000     0.172000000     0.472000000
C    -4.193000000     1.269000000     0.120000000
C    -4.497000000     1.789000000    -1.279000000
C    -4.890000000     0.931000000    -2.333000000
H    -5.153000000    -0.110000000    -2.162000000
C    -4.047000000     3.095000000    -1.610000000
H    -3.588000000     3.709000000    -0.839000000
O    -4.214000000     2.267000000     1.180000000
H    -3.172000000     0.872000000     0.026000000
C    -4.217000000    -0.848000000     2.444000000
C    -4.476000000     0.425000000     3.215000000
H    -4.610000000     0.104000000     4.250000000
H    -5.425000000     0.872000000     2.908000000
C    -3.266000000     1.328000000     3.174000000
C    -3.225000000     2.238000000     2.128000000
C    -2.162000000     3.154000000     2.047000000
H    -2.051000000     3.875000000     1.242000000
C    -1.107000000     3.078000000     3.001000000
O    -0.069000000     3.999000000     2.974000000
C     1.143000000     3.447000000     2.486000000
H     0.959000000     2.504000000     1.951000000
C     1.747000000     4.181000000     1.284000000
C     3.110000000     3.962000000     0.951000000
H     3.751000000     3.440000000     1.657000000
C     0.870000000     4.864000000     0.385000000
H    -0.197000000     4.897000000     0.585000000
C     1.365000000     5.376000000    -0.808000000
O     0.581000000     6.055000000    -1.754000000
C     2.723000000     5.170000000    -1.132000000
H     3.086000000     5.531000000    -2.091000000
C     3.607000000     4.577000000    -0.215000000
O     4.885000000     4.392000000    -0.588000000
C     5.915000000     3.640000000    -0.029000000
C     6.118000000     2.365000000    -0.526000000
H     5.493000000     1.958000000    -1.317000000
C     6.653000000     4.140000000     1.011000000
H     6.409000000     5.030000000     1.584000000
C     7.700000000     3.379000000     1.524000000
H     8.256000000     3.819000000     2.348000000
C     8.041000000     2.172000000     0.999000000
H     8.882000000     1.588000000     1.364000000
C     7.188000000     1.673000000    -0.059000000
O     7.543000000     0.389000000    -0.440000000
C     6.497000000    -0.506000000    -0.521000000
C     6.199000000    -1.209000000    -1.691000000
H     6.795000000    -0.952000000    -2.563000000
C     5.079000000    -2.020000000    -1.700000000
O     4.820000000    -2.774000000    -2.805000000
C     4.145000000    -3.942000000    -2.895000000
C     2.975000000    -3.968000000    -3.655000000
H     2.629000000    -3.051000000    -4.126000000
C     4.355000000    -5.056000000    -2.134000000
H     5.223000000    -4.957000000    -1.488000000
C     3.594000000    -6.231000000    -2.156000000
H     3.837000000    -7.026000000    -1.456000000
C     2.524000000    -6.285000000    -3.024000000
H     1.887000000    -7.165000000    -3.039000000
C     2.158000000    -5.114000000    -3.772000000
O     1.005000000    -5.023000000    -4.441000000
C    -0.196000000    -4.657000000    -3.903000000
C    -1.250000000    -4.423000000    -4.757000000
H    -1.127000000    -4.641000000    -5.815000000
C    -2.450000000    -3.925000000    -4.179000000
O    -3.491000000    -3.685000000    -5.038000000
C    -4.538000000    -2.820000000    -4.740000000
C    -4.430000000    -1.427000000    -4.759000000
H    -3.512000000    -0.869000000    -4.928000000
C    -5.769000000    -3.430000000    -4.624000000
H    -5.883000000    -4.510000000    -4.670000000
C    -6.872000000    -2.583000000    -4.402000000
H    -7.839000000    -3.072000000    -4.314000000
C    -6.724000000    -1.243000000    -4.408000000
H    -7.463000000    -0.493000000    -4.138000000
C    -5.539000000    -0.686000000    -4.583000000
O    -5.441000000     0.714000000    -4.719000000
C    -4.955000000     1.448000000    -3.663000000
C    -4.475000000     2.781000000    -3.894000000
H    -4.369000000     3.108000000    -4.925000000
C    -4.200000000     3.669000000    -2.907000000
O    -3.739000000     4.881000000    -3.231000000
C    -2.923000000     5.574000000    -2.392000000
C    -3.491000000     6.447000000    -1.458000000
H    -4.571000000     6.517000000    -1.356000000
C    -2.676000000     7.262000000    -0.706000000
H    -3.103000000     7.993000000    -0.025000000
C    -1.298000000     7.116000000    -0.790000000
H    -0.610000000     7.783000000    -0.277000000
C    -0.734000000     6.135000000    -1.670000000
C    -1.564000000     5.348000000    -2.486000000
H    -1.149000000     4.668000000    -3.226000000
C    -0.397000000    -0.154000000    -1.453000000
H    -1.215000000    -0.555000000    -2.047000000
C    -0.387000000    -0.062000000    -0.072000000
H    -1.250000000    -0.462000000     0.455000000
C     0.713000000     0.439000000     0.577000000
H     0.779000000     0.503000000     1.711000000
C     1.776000000     0.862000000    -0.120000000
H     2.615000000     1.239000000     0.459000000
C     1.867000000     0.808000000    -1.535000000
H     2.735000000     1.127000000    -2.106000000
C     0.674000000     0.374000000    -2.244000000
C     0.595000000     0.375000000    -3.779000000
O     1.584000000     0.795000000    -4.432000000
O    -0.436000000     0.033000000    -4.278000000
O     0.298000000     5.461000000    -7.742000000
H     0.673000000     5.524000000    -8.620000000
H    -0.170000000     4.626000000    -7.741000000
O    -1.569000000     3.555000000    -7.634000000
H    -2.010000000     3.291000000    -8.441000000
H    -1.318000000     2.731000000    -7.217000000
O     3.864000000    -0.044000000    -5.406000000
H     2.963000000    -0.030000000    -5.085000000
H     4.271000000     0.728000000    -5.012000000
O     4.714000000     0.738000000    -8.402000000
H     4.541000000     0.536000000    -9.322000000
H     4.071000000     1.411000000    -8.180000000
O     1.871000000     3.489000000    -3.554000000
H     1.609000000     2.627000000    -3.877000000
H     1.757000000     3.433000000    -2.605000000
O     7.070000000     2.281000000    -4.188000000
H     6.276000000     2.795000000    -4.040000000
H     7.776000000     2.927000000    -4.190000000
O     1.929000000     6.065000000    -4.260000000
H     2.849000000     5.981000000    -4.514000000
H     1.669000000     5.179000000    -4.007000000
O     4.201000000     2.599000000    -5.095000000
H     3.462000000     2.936000000    -4.588000000
H     4.289000000     3.210000000    -5.826000000
O     0.684000000    -1.397000000    -6.634000000
H     1.285000000    -0.681000000    -6.427000000
H    -0.038000000    -1.291000000    -6.015000000
O     5.005000000    -2.090000000    -7.360000000
H     4.930000000    -1.376000000    -6.727000000
H     4.513000000    -1.788000000    -8.123000000
O     2.512000000     2.084000000    -9.486000000
H     1.745000000     1.842000000   -10.005000000
H     2.249000000     1.921000000    -8.580000000
O     1.413000000    -6.251000000    -6.989000000
H     2.218000000    -6.645000000    -7.324000000
H     1.653000000    -5.346000000    -6.790000000
O     1.554000000     1.658000000    -6.987000000
H     0.690000000     2.070000000    -6.993000000
H     1.670000000     1.359000000    -6.086000000
O    -1.316000000    -3.001000000    -7.972000000
H    -2.105000000    -2.461000000    -7.916000000
H    -0.615000000    -2.436000000    -7.647000000
O     2.475000000    -3.457000000    -7.275000000
H     1.730000000    -2.872000000    -7.141000000
H     3.145000000    -3.134000000    -6.674000000
O    -3.790000000    -1.835000000    -7.955000000
H    -4.359000000    -1.104000000    -7.714000000
H    -4.391000000    -2.524000000    -8.237000000
O    -1.268000000     1.277000000    -6.357000000
H    -0.967000000     0.934000000    -5.516000000
H    -1.227000000     0.527000000    -6.951000000
O    -0.454000000     6.472000000    -5.211000000
H     0.450000000     6.458000000    -4.896000000
H    -0.444000000     5.921000000    -5.994000000
O     4.437000000     4.399000000    -7.086000000
H     4.726000000     3.905000000    -7.853000000
H     4.952000000     5.206000000    -7.113000000
