215
-1437.04059
C    -2.623000000    -3.138000000    -0.207000000
H    -3.203000000    -2.219000000    -0.231000000
C    -2.042000000    -3.515000000     1.004000000
C    -1.382000000    -4.728000000     0.959000000
H    -0.952000000    -5.067000000     1.898000000
C    -2.133000000    -2.570000000     2.187000000
O    -3.479000000    -1.990000000     2.257000000
H    -1.587000000    -1.724000000     1.744000000
O    -1.699000000    -3.103000000     3.474000000
C    -0.715000000    -2.305000000     4.130000000
C     0.591000000    -2.536000000     3.850000000
H     0.789000000    -3.441000000     3.280000000
C     1.621000000    -1.701000000     4.316000000
O     2.952000000    -2.023000000     3.868000000
C     1.302000000    -0.508000000     4.945000000
C     2.383000000     0.576000000     5.188000000
H     2.061000000     1.096000000     6.093000000
C     2.692000000     1.321000000     3.888000000
C     2.074000000     2.569000000     3.748000000
H     1.437000000     2.987000000     4.523000000
H     3.274000000    -0.009000000     5.427000000
C    -0.032000000    -0.260000000     5.243000000
H    -0.333000000     0.684000000     5.691000000
C    -1.044000000    -1.161000000     4.845000000
C    -2.472000000    -0.777000000     4.987000000
H    -2.529000000    -0.215000000     5.922000000
H    -3.074000000    -1.664000000     5.198000000
C    -3.129000000     0.002000000     3.787000000
C    -3.099000000     1.378000000     3.714000000
H    -2.590000000     1.960000000     4.478000000
C    -3.638000000    -0.657000000     2.602000000
C    -4.286000000     0.085000000     1.604000000
H    -4.710000000    -0.443000000     0.754000000
C    -4.344000000     1.502000000     1.676000000
O    -4.678000000     2.126000000     0.485000000
C    -3.642000000     2.570000000    -0.370000000
C    -4.059000000     2.331000000    -1.816000000
C    -3.574000000     3.135000000    -2.872000000
H    -2.949000000     3.964000000    -2.548000000
C    -4.981000000     1.368000000    -2.133000000
H    -5.359000000     0.786000000    -1.295000000
O    -3.294000000     3.971000000    -0.146000000
H    -2.924000000     1.772000000    -0.131000000
C    -3.652000000     2.138000000     2.677000000
C    -3.391000000     3.636000000     2.725000000
H    -3.444000000     3.976000000     3.761000000
H    -4.290000000     4.076000000     2.289000000
C    -2.148000000     4.061000000     1.955000000
C    -0.910000000     4.290000000     2.600000000
H    -0.645000000     3.901000000     3.580000000
C    -2.168000000     4.287000000     0.581000000
C    -1.029000000     4.634000000    -0.130000000
H    -1.099000000     4.577000000    -1.213000000
C     0.201000000     4.863000000     0.517000000
O     1.306000000     4.932000000    -0.269000000
C     1.923000000     3.599000000    -0.460000000
C     2.342000000     3.199000000    -1.848000000
C     1.612000000     3.612000000    -3.002000000
H     0.868000000     4.384000000    -2.825000000
C     3.237000000     2.095000000    -2.023000000
H     3.782000000     1.741000000    -1.152000000
O     3.010000000     3.543000000     0.331000000
H     1.128000000     2.949000000    -0.066000000
C     0.250000000     4.737000000     1.874000000
C     1.631000000     4.747000000     2.474000000
H     1.547000000     5.294000000     3.415000000
H     2.348000000     5.379000000     1.945000000
C     2.192000000     3.348000000     2.627000000
C     2.869000000     2.835000000     1.546000000
C     3.696000000     1.696000000     1.710000000
H     4.396000000     1.472000000     0.909000000
C     3.584000000     0.929000000     2.868000000
O     4.200000000    -0.283000000     2.934000000
C     3.333000000    -1.416000000     2.619000000
H     2.430000000    -1.108000000     2.072000000
C     3.940000000    -2.488000000     1.768000000
C     3.653000000    -3.913000000     1.848000000
H     2.887000000    -4.418000000     2.430000000
C     4.840000000    -2.040000000     0.838000000
H     5.141000000    -0.998000000     0.778000000
C     5.454000000    -2.944000000    -0.002000000
O     6.514000000    -2.513000000    -0.813000000
C     5.331000000    -4.339000000     0.170000000
H     5.829000000    -5.088000000    -0.440000000
C     4.276000000    -4.734000000     1.002000000
O     4.020000000    -6.079000000     1.025000000
C     2.791000000    -6.658000000     1.234000000
C     1.782000000    -6.419000000     0.393000000
H     2.054000000    -5.940000000    -0.544000000
C     2.613000000    -7.486000000     2.330000000
H     3.335000000    -7.528000000     3.141000000
C     1.358000000    -7.987000000     2.650000000
H     1.233000000    -8.588000000     3.548000000
C     0.286000000    -7.756000000     1.736000000
H    -0.685000000    -8.203000000     1.934000000
C     0.518000000    -6.935000000     0.642000000
O    -0.523000000    -6.711000000    -0.203000000
C    -1.254000000    -5.498000000    -0.240000000
C    -1.859000000    -5.102000000    -1.420000000
H    -1.720000000    -5.608000000    -2.372000000
C    -2.661000000    -3.979000000    -1.333000000
O    -3.198000000    -3.487000000    -2.483000000
C    -4.432000000    -3.083000000    -2.589000000
C    -4.615000000    -1.780000000    -2.970000000
H    -3.761000000    -1.152000000    -3.210000000
C    -5.531000000    -3.887000000    -2.346000000
H    -5.365000000    -4.896000000    -1.977000000
C    -6.822000000    -3.413000000    -2.551000000
H    -7.729000000    -4.002000000    -2.442000000
C    -7.019000000    -2.088000000    -3.055000000
H    -7.980000000    -1.621000000    -3.255000000
C    -5.865000000    -1.265000000    -3.238000000
O    -5.943000000    -0.054000000    -3.852000000
C    -5.312000000     1.086000000    -3.462000000
C    -4.824000000     1.876000000    -4.501000000
H    -5.079000000     1.656000000    -5.535000000
C    -3.920000000     2.845000000    -4.208000000
O    -3.551000000     3.763000000    -5.235000000
C    -2.350000000     4.393000000    -5.390000000
C    -1.129000000     3.752000000    -5.188000000
H    -1.155000000     2.792000000    -4.680000000
C    -2.363000000     5.642000000    -5.991000000
H    -3.280000000     6.183000000    -6.213000000
C    -1.164000000     6.304000000    -6.243000000
H    -1.206000000     7.310000000    -6.653000000
C     0.081000000     5.663000000    -6.042000000
H     0.958000000     6.171000000    -6.433000000
C     0.136000000     4.365000000    -5.462000000
O     1.299000000     3.686000000    -5.462000000
C     1.809000000     3.082000000    -4.289000000
C     2.823000000     2.132000000    -4.397000000
H     3.000000000     1.790000000    -5.413000000
C     3.449000000     1.564000000    -3.254000000
O     4.327000000     0.601000000    -3.516000000
C     5.459000000     0.322000000    -2.800000000
C     6.478000000     1.280000000    -2.606000000
H     6.353000000     2.253000000    -3.074000000
C     7.549000000     0.885000000    -1.785000000
H     8.337000000     1.616000000    -1.622000000
C     7.589000000    -0.400000000    -1.159000000
H     8.504000000    -0.595000000    -0.605000000
C     6.580000000    -1.315000000    -1.444000000
C     5.435000000    -0.959000000    -2.209000000
H     4.608000000    -1.648000000    -2.363000000
C     0.684000000    -1.931000000    -1.184000000
H     1.048000000    -2.950000000    -1.286000000
C     0.559000000    -1.387000000     0.141000000
H     0.831000000    -1.969000000     1.018000000
C     0.097000000    -0.038000000     0.352000000
H    -0.071000000     0.396000000     1.355000000
C    -0.124000000     0.739000000    -0.798000000
H    -0.411000000     1.776000000    -0.646000000
C    -0.071000000     0.267000000    -2.077000000
H    -0.337000000     1.009000000    -2.825000000
C     0.405000000    -1.064000000    -2.317000000
C     0.645000000    -1.524000000    -3.677000000
O     0.002000000    -1.100000000    -4.636000000
O     1.278000000    -2.530000000    -3.864000000
O     0.278000000    -6.703000000    -4.263000000
H    -0.394000000    -6.023000000    -4.231000000
H     0.993000000    -6.311000000    -4.762000000
O    -4.140000000    -1.844000000    -5.962000000
H    -3.988000000    -2.516000000    -6.626000000
H    -5.020000000    -2.027000000    -5.633000000
O     2.895000000    -0.578000000    -7.356000000
H     3.122000000    -0.992000000    -6.524000000
H     1.938000000    -0.557000000    -7.360000000
O    -1.848000000    -0.016000000    -6.117000000
H    -1.099000000    -0.309000000    -5.599000000
H    -2.570000000    -0.578000000    -5.835000000
O     0.070000000    -1.401000000    -8.015000000
H    -0.192000000    -1.152000000    -8.902000000
H    -0.623000000    -1.053000000    -7.454000000
O    -2.915000000     2.092000000    -7.496000000
H    -2.187000000     2.678000000    -7.291000000
H    -2.643000000     1.241000000    -7.153000000
O     5.150000000    -3.346000000    -7.359000000
H     6.098000000    -3.388000000    -7.487000000
H     5.014000000    -3.662000000    -6.466000000
O     6.017000000    -1.021000000    -5.514000000
H     6.038000000    -1.058000000    -6.470000000
H     5.091000000    -1.115000000    -5.291000000
O     2.059000000     1.869000000    -8.468000000
H     2.084000000     1.821000000    -9.424000000
H     2.527000000     1.087000000    -8.176000000
O    -4.774000000    -4.690000000    -6.018000000
H    -4.733000000    -4.613000000    -6.972000000
H    -3.930000000    -5.069000000    -5.772000000
O    -0.351000000    -5.811000000    -7.017000000
H     0.044000000    -4.954000000    -6.854000000
H    -0.258000000    -5.942000000    -7.960000000
O     1.379000000    -4.960000000    -9.475000000
H     1.120000000    -4.288000000    -8.844000000
H     2.210000000    -4.647000000    -9.831000000
O    -1.280000000    -4.479000000    -4.412000000
H    -1.978000000    -3.961000000    -4.009000000
H    -0.667000000    -3.828000000    -4.754000000
O     4.604000000    -4.715000000    -4.850000000
H     3.905000000    -5.336000000    -5.053000000
H     5.407000000    -5.165000000    -5.112000000
O     0.926000000    -3.664000000    -6.167000000
H     0.654000000    -2.883000000    -6.649000000
H     1.119000000    -3.346000000    -5.285000000
O    -2.765000000    -6.589000000    -5.901000000
H    -1.991000000    -6.398000000    -6.432000000
H    -2.514000000    -6.336000000    -5.013000000
O     3.453000000    -1.844000000    -5.085000000
H     2.582000000    -1.886000000    -4.691000000
H     3.727000000    -2.758000000    -5.160000000
O     2.623000000    -4.689000000    -3.014000000
H     3.277000000    -4.606000000    -3.709000000
H     2.050000000    -3.932000000    -3.133000000
O     4.204000000    -7.154000000    -2.684000000
H     3.969000000    -6.300000000    -2.322000000
H     3.395000000    -7.664000000    -2.640000000
