215
-1465.65902
C    -3.364000000    -3.946000000    -0.941000000
H    -4.305000000    -3.424000000    -1.094000000
C    -2.576000000    -3.676000000     0.172000000
C    -1.359000000    -4.342000000     0.268000000
H    -0.679000000    -3.996000000     1.042000000
C    -2.996000000    -2.693000000     1.160000000
O    -4.330000000    -2.198000000     0.967000000
H    -2.265000000    -1.883000000     1.020000000
O    -2.836000000    -3.109000000     2.580000000
C    -2.046000000    -2.203000000     3.331000000
C    -0.721000000    -2.484000000     3.633000000
H    -0.172000000    -3.388000000     3.381000000
C     0.009000000    -1.481000000     4.331000000
O     1.378000000    -1.581000000     4.370000000
C    -0.533000000    -0.289000000     4.791000000
C     0.231000000     0.828000000     5.465000000
H    -0.460000000     1.402000000     6.086000000
C     0.993000000     1.742000000     4.503000000
C     0.348000000     2.879000000     3.993000000
H    -0.622000000     3.167000000     4.392000000
H     0.931000000     0.408000000     6.190000000
C    -1.905000000    -0.150000000     4.733000000
H    -2.332000000     0.770000000     5.123000000
C    -2.638000000    -1.027000000     3.868000000
C    -4.069000000    -0.766000000     3.597000000
H    -4.334000000    -0.028000000     4.357000000
H    -4.661000000    -1.661000000     3.801000000
C    -4.345000000    -0.150000000     2.193000000
C    -4.480000000     1.202000000     2.059000000
H    -4.346000000     1.852000000     2.920000000
C    -4.446000000    -0.873000000     0.992000000
C    -4.574000000    -0.199000000    -0.242000000
H    -4.612000000    -0.783000000    -1.158000000
C    -4.632000000     1.189000000    -0.326000000
O    -4.695000000     1.735000000    -1.515000000
C    -3.377000000     1.906000000    -2.017000000
C    -3.204000000     1.457000000    -3.470000000
C    -2.219000000     2.065000000    -4.268000000
H    -1.678000000     2.951000000    -3.944000000
C    -3.959000000     0.422000000    -3.942000000
H    -4.762000000    -0.022000000    -3.360000000
O    -3.095000000     3.238000000    -1.808000000
H    -2.659000000     1.246000000    -1.508000000
C    -4.524000000     1.925000000     0.880000000
C    -4.331000000     3.452000000     0.840000000
H    -4.653000000     3.919000000     1.773000000
H    -4.922000000     3.783000000    -0.017000000
C    -2.881000000     3.765000000     0.577000000
C    -2.039000000     4.115000000     1.642000000
H    -2.422000000     4.127000000     2.659000000
C    -2.335000000     3.609000000    -0.725000000
C    -1.010000000     3.884000000    -0.895000000
H    -0.579000000     3.825000000    -1.891000000
C    -0.224000000     4.326000000     0.159000000
O     1.074000000     4.702000000    -0.062000000
C     2.110000000     3.703000000     0.234000000
C     3.089000000     3.362000000    -0.827000000
C     2.760000000     3.573000000    -2.197000000
H     1.720000000     3.839000000    -2.368000000
C     4.371000000     2.834000000    -0.532000000
H     4.704000000     2.738000000     0.498000000
O     2.752000000     4.021000000     1.459000000
H     1.602000000     2.765000000     0.503000000
C    -0.702000000     4.433000000     1.464000000
C     0.154000000     4.921000000     2.577000000
H    -0.486000000     5.271000000     3.389000000
H     0.789000000     5.726000000     2.202000000
C     0.963000000     3.745000000     3.104000000
C     2.257000000     3.411000000     2.626000000
C     2.909000000     2.282000000     3.152000000
H     3.872000000     1.949000000     2.773000000
C     2.267000000     1.447000000     4.063000000
O     2.809000000     0.240000000     4.194000000
C     2.286000000    -0.871000000     3.472000000
H     1.703000000    -0.561000000     2.592000000
C     3.355000000    -1.777000000     2.907000000
C     3.134000000    -3.134000000     2.783000000
H     2.201000000    -3.588000000     3.106000000
C     4.568000000    -1.223000000     2.348000000
H     4.757000000    -0.156000000     2.432000000
C     5.510000000    -2.083000000     1.812000000
O     6.712000000    -1.663000000     1.236000000
C     5.344000000    -3.447000000     1.972000000
H     6.153000000    -4.131000000     1.731000000
C     4.129000000    -3.988000000     2.384000000
O     4.001000000    -5.341000000     2.440000000
C     2.822000000    -5.993000000     2.065000000
C     2.187000000    -5.690000000     0.893000000
H     2.554000000    -4.862000000     0.291000000
C     2.317000000    -7.017000000     2.867000000
H     2.868000000    -7.424000000     3.711000000
C     1.060000000    -7.590000000     2.587000000
H     0.541000000    -8.308000000     3.216000000
C     0.290000000    -7.107000000     1.511000000
H    -0.750000000    -7.295000000     1.259000000
C     0.951000000    -6.252000000     0.591000000
O     0.349000000    -5.830000000    -0.570000000
C    -0.931000000    -5.300000000    -0.661000000
C    -1.746000000    -5.540000000    -1.723000000
H    -1.412000000    -6.210000000    -2.510000000
C    -2.927000000    -4.834000000    -1.881000000
O    -3.697000000    -5.120000000    -3.002000000
C    -4.513000000    -4.210000000    -3.618000000
C    -3.985000000    -3.205000000    -4.439000000
H    -2.904000000    -3.206000000    -4.554000000
C    -5.862000000    -4.203000000    -3.286000000
H    -6.263000000    -4.894000000    -2.549000000
C    -6.705000000    -3.286000000    -3.866000000
H    -7.761000000    -3.368000000    -3.620000000
C    -6.218000000    -2.213000000    -4.617000000
H    -6.899000000    -1.426000000    -4.930000000
C    -4.823000000    -2.211000000    -4.853000000
O    -4.335000000    -1.262000000    -5.713000000
C    -3.695000000    -0.142000000    -5.244000000
C    -2.693000000     0.470000000    -5.982000000
H    -2.532000000     0.126000000    -7.000000000
C    -1.955000000     1.551000000    -5.514000000
O    -0.955000000     2.091000000    -6.304000000
C    -0.084000000     3.035000000    -5.865000000
C     1.164000000     2.685000000    -5.504000000
H     1.483000000     1.649000000    -5.592000000
C    -0.397000000     4.398000000    -6.005000000
H    -1.318000000     4.616000000    -6.538000000
C     0.541000000     5.380000000    -5.672000000
H     0.382000000     6.442000000    -5.839000000
C     1.799000000     5.018000000    -5.170000000
H     2.556000000     5.725000000    -4.842000000
C     2.041000000     3.689000000    -5.054000000
O     3.311000000     3.250000000    -4.592000000
C     3.635000000     3.193000000    -3.209000000
C     5.004000000     2.964000000    -2.920000000
H     5.786000000     2.802000000    -3.658000000
C     5.301000000     2.731000000    -1.581000000
O     6.603000000     2.367000000    -1.306000000
C     6.950000000     1.768000000    -0.127000000
C     7.410000000     2.488000000     0.992000000
H     7.538000000     3.567000000     1.023000000
C     7.736000000     1.788000000     2.174000000
H     8.101000000     2.279000000     3.072000000
C     7.477000000     0.406000000     2.239000000
H     7.654000000    -0.166000000     3.145000000
C     7.057000000    -0.317000000     1.124000000
C     6.881000000     0.353000000    -0.088000000
H     6.517000000    -0.190000000    -0.957000000
C     1.442000000    -2.354000000    -1.383000000
H     0.973000000    -3.160000000    -1.941000000
C     0.606000000    -1.543000000    -0.571000000
H    -0.443000000    -1.826000000    -0.592000000
C     1.121000000    -0.504000000     0.164000000
H     0.505000000     0.147000000     0.666000000
C     2.464000000    -0.248000000     0.133000000
H     2.881000000     0.559000000     0.730000000
C     3.351000000    -0.959000000    -0.683000000
H     4.420000000    -0.828000000    -0.538000000
C     2.851000000    -2.074000000    -1.382000000
C     3.709000000    -3.095000000    -2.080000000
O     4.914000000    -2.956000000    -2.065000000
O     3.173000000    -4.038000000    -2.684000000
O     2.106000000    -6.518000000    -2.656000000
H     1.952000000    -6.760000000    -1.742000000
H     2.656000000    -5.736000000    -2.607000000
O    -0.977000000    -4.206000000    -6.184000000
H    -0.464000000    -3.774000000    -5.501000000
H    -1.118000000    -5.093000000    -5.854000000
O     8.863000000    -1.306000000    -3.494000000
H     9.112000000    -1.978000000    -4.128000000
H     7.912000000    -1.386000000    -3.421000000
O     0.523000000    -8.712000000    -3.014000000
H     0.863000000    -7.819000000    -2.959000000
H     1.251000000    -9.263000000    -2.725000000
O     7.586000000    -6.104000000    -0.331000000
H     7.528000000    -5.152000000    -0.410000000
H     8.495000000    -6.269000000    -0.081000000
O     3.278000000    -9.576000000    -2.528000000
H     3.399000000    -8.709000000    -2.140000000
H     3.773000000    -9.542000000    -3.347000000
O    -0.628000000    -6.540000000    -5.035000000
H    -0.456000000    -7.358000000    -4.568000000
H    -0.139000000    -5.878000000    -4.546000000
O     3.710000000    -4.032000000    -6.876000000
H     4.461000000    -3.823000000    -6.321000000
H     3.732000000    -3.370000000    -7.568000000
O     7.227000000    -3.410000000    -1.020000000
H     6.339000000    -3.196000000    -1.308000000
H     7.550000000    -2.603000000    -0.621000000
O     2.082000000    -2.103000000    -5.412000000
H     1.512000000    -1.788000000    -6.114000000
H     2.866000000    -2.417000000    -5.862000000
O     0.899000000     0.278000000    -3.377000000
H     1.320000000    -0.399000000    -3.907000000
H     0.868000000    -0.093000000    -2.495000000
O     0.903000000    -4.180000000    -4.141000000
H     1.498000000    -3.528000000    -4.511000000
H     1.394000000    -4.571000000    -3.419000000
O     5.083000000    -5.473000000    -3.938000000
H     4.572000000    -4.921000000    -3.346000000
H     5.581000000    -4.854000000    -4.472000000
O     5.852000000    -1.023000000    -3.520000000
H     5.183000000    -0.567000000    -4.030000000
H     5.392000000    -1.768000000    -3.132000000
O     5.520000000    -7.467000000    -1.695000000
H     6.262000000    -7.014000000    -1.294000000
H     5.270000000    -6.910000000    -2.433000000
O     7.486000000    -6.112000000    -5.805000000
H     8.416000000    -6.216000000    -6.005000000
H     7.468000000    -5.830000000    -4.890000000
O     6.483000000    -2.861000000    -5.433000000
H     6.676000000    -2.140000000    -4.835000000
H     7.339000000    -3.237000000    -5.639000000
O     2.424000000    -6.301000000    -6.499000000
H     2.894000000    -5.471000000    -6.423000000
H     2.052000000    -6.446000000    -5.630000000
O     9.859000000    -4.130000000    -2.219000000
H    10.255000000    -3.375000000    -1.784000000
H     8.943000000    -4.114000000    -1.940000000
