215
-1453.19217
C    -3.508000000    -3.657000000    -0.298000000
H    -4.249000000    -2.862000000    -0.292000000
C    -2.837000000    -3.862000000     0.895000000
C    -1.947000000    -4.874000000     0.931000000
H    -1.391000000    -5.068000000     1.844000000
C    -2.775000000    -2.643000000     1.823000000
O    -4.044000000    -2.047000000     2.135000000
H    -2.270000000    -1.884000000     1.207000000
O    -2.102000000    -3.012000000     2.994000000
C    -1.322000000    -2.137000000     3.753000000
C     0.006000000    -2.430000000     3.646000000
H     0.298000000    -3.187000000     2.923000000
C     0.976000000    -1.548000000     4.189000000
O     2.290000000    -1.802000000     4.024000000
C     0.563000000    -0.431000000     4.877000000
C     1.600000000     0.593000000     5.382000000
H     1.068000000     1.239000000     6.084000000
C     2.183000000     1.519000000     4.258000000
C     1.543000000     2.721000000     3.982000000
H     0.715000000     3.047000000     4.607000000
H     2.441000000     0.059000000     5.830000000
C    -0.813000000    -0.218000000     5.059000000
H    -1.076000000     0.703000000     5.573000000
C    -1.780000000    -1.081000000     4.529000000
C    -3.241000000    -0.686000000     4.620000000
H    -3.313000000     0.049000000     5.424000000
H    -3.851000000    -1.564000000     4.839000000
C    -3.681000000    -0.017000000     3.345000000
C    -3.490000000     1.378000000     3.228000000
H    -3.045000000     1.961000000     4.029000000
C    -4.102000000    -0.694000000     2.175000000
C    -4.493000000     0.035000000     1.071000000
H    -4.902000000    -0.527000000     0.235000000
C    -4.302000000     1.360000000     0.982000000
O    -4.567000000     1.979000000    -0.213000000
C    -3.471000000     2.431000000    -1.164000000
C    -3.826000000     2.100000000    -2.561000000
C    -3.256000000     2.886000000    -3.592000000
H    -2.516000000     3.674000000    -3.484000000
C    -4.729000000     1.106000000    -2.880000000
H    -5.127000000     0.496000000    -2.074000000
O    -3.299000000     3.847000000    -0.901000000
H    -2.563000000     1.815000000    -1.087000000
C    -3.811000000     2.030000000     2.031000000
C    -3.641000000     3.579000000     1.992000000
H    -3.758000000     4.031000000     2.979000000
H    -4.491000000     3.937000000     1.405000000
C    -2.334000000     3.917000000     1.363000000
C    -1.257000000     4.197000000     2.203000000
H    -1.448000000     4.104000000     3.269000000
C    -2.255000000     4.060000000    -0.002000000
C    -1.002000000     4.393000000    -0.524000000
H    -0.824000000     4.501000000    -1.591000000
C     0.148000000     4.428000000     0.302000000
O     1.377000000     4.408000000    -0.316000000
C     2.225000000     3.255000000    -0.178000000
C     2.935000000     3.113000000    -1.566000000
C     2.256000000     3.491000000    -2.762000000
H     1.353000000     4.092000000    -2.684000000
C     4.197000000     2.591000000    -1.639000000
H     4.753000000     2.259000000    -0.766000000
O     3.218000000     3.661000000     0.783000000
H     1.692000000     2.331000000     0.090000000
C    -0.003000000     4.465000000     1.671000000
C     1.192000000     4.740000000     2.549000000
H     0.933000000     5.325000000     3.434000000
H     1.958000000     5.417000000     2.167000000
C     1.991000000     3.495000000     2.924000000
C     2.993000000     3.129000000     2.070000000
C     3.683000000     1.970000000     2.406000000
H     4.524000000     1.667000000     1.787000000
C     3.257000000     1.132000000     3.429000000
O     3.779000000    -0.151000000     3.460000000
C     2.983000000    -1.241000000     2.918000000
H     2.310000000    -0.741000000     2.206000000
C     3.906000000    -2.186000000     2.039000000
C     3.453000000    -3.459000000     1.715000000
H     2.567000000    -3.785000000     2.254000000
C     5.086000000    -1.753000000     1.429000000
H     5.471000000    -0.756000000     1.628000000
C     5.805000000    -2.602000000     0.533000000
O     6.884000000    -2.184000000    -0.253000000
C     5.295000000    -3.895000000     0.255000000
H     5.806000000    -4.626000000    -0.367000000
C     4.161000000    -4.399000000     0.908000000
O     3.743000000    -5.729000000     0.715000000
C     2.594000000    -6.241000000     1.193000000
C     1.421000000    -6.087000000     0.479000000
H     1.361000000    -5.524000000    -0.449000000
C     2.526000000    -6.827000000     2.461000000
H     3.446000000    -6.930000000     3.030000000
C     1.306000000    -7.281000000     2.998000000
H     1.361000000    -7.913000000     3.880000000
C     0.249000000    -7.312000000     2.140000000
H    -0.621000000    -7.897000000     2.426000000
C     0.232000000    -6.727000000     0.919000000
O    -0.876000000    -6.841000000     0.132000000
C    -1.793000000    -5.808000000    -0.082000000
C    -2.601000000    -5.741000000    -1.176000000
H    -2.566000000    -6.419000000    -2.025000000
C    -3.427000000    -4.585000000    -1.321000000
O    -4.036000000    -4.403000000    -2.541000000
C    -5.095000000    -3.536000000    -2.827000000
C    -4.835000000    -2.280000000    -3.448000000
H    -3.782000000    -2.049000000    -3.586000000
C    -6.392000000    -3.769000000    -2.336000000
H    -6.604000000    -4.704000000    -1.825000000
C    -7.459000000    -2.975000000    -2.742000000
H    -8.484000000    -3.231000000    -2.486000000
C    -7.202000000    -1.811000000    -3.496000000
H    -7.939000000    -1.133000000    -3.919000000
C    -5.879000000    -1.431000000    -3.858000000
O    -5.572000000    -0.322000000    -4.570000000
C    -4.808000000     0.743000000    -4.220000000
C    -4.087000000     1.328000000    -5.223000000
H    -4.130000000     0.903000000    -6.223000000
C    -3.328000000     2.455000000    -4.958000000
O    -2.635000000     3.007000000    -5.985000000
C    -1.569000000     3.815000000    -5.852000000
C    -0.328000000     3.194000000    -5.707000000
H    -0.236000000     2.112000000    -5.755000000
C    -1.710000000     5.174000000    -5.737000000
H    -2.599000000     5.775000000    -5.915000000
C    -0.602000000     5.920000000    -5.287000000
H    -0.785000000     6.973000000    -5.089000000
C     0.633000000     5.270000000    -5.024000000
H     1.446000000     5.871000000    -4.627000000
C     0.794000000     3.873000000    -5.293000000
O     1.967000000     3.119000000    -5.149000000
C     2.717000000     3.015000000    -3.987000000
C     3.943000000     2.354000000    -4.043000000
H     4.266000000     2.006000000    -5.021000000
C     4.720000000     2.183000000    -2.872000000
O     5.869000000     1.504000000    -3.008000000
C     6.742000000     0.945000000    -1.988000000
C     7.881000000     1.580000000    -1.556000000
H     8.287000000     2.481000000    -2.008000000
C     8.817000000     0.892000000    -0.737000000
H     9.758000000     1.368000000    -0.474000000
C     8.427000000    -0.313000000    -0.125000000
H     9.193000000    -0.777000000     0.491000000
C     7.172000000    -0.878000000    -0.457000000
C     6.364000000    -0.298000000    -1.461000000
H     5.512000000    -0.865000000    -1.827000000
C     0.595000000    -1.725000000    -0.523000000
H     0.850000000    -2.626000000     0.029000000
C     0.060000000    -0.635000000     0.199000000
H    -0.058000000    -0.666000000     1.280000000
C    -0.196000000     0.560000000    -0.470000000
H    -0.611000000     1.443000000     0.087000000
C     0.100000000     0.659000000    -1.867000000
H    -0.100000000     1.604000000    -2.365000000
C     0.516000000    -0.485000000    -2.534000000
H     0.585000000    -0.475000000    -3.618000000
C     0.695000000    -1.645000000    -1.868000000
C     1.219000000    -2.839000000    -2.670000000
O     1.767000000    -2.741000000    -3.732000000
O     0.865000000    -3.968000000    -2.396000000
O     0.525000000    -6.552000000    -2.785000000
H     0.761000000    -5.626000000    -2.725000000
H    -0.272000000    -6.630000000    -2.260000000
O    -1.694000000    -3.163000000    -6.691000000
H    -2.468000000    -2.665000000    -6.428000000
H    -1.529000000    -3.755000000    -5.957000000
O     3.027000000    -0.364000000    -6.903000000
H     3.633000000    -0.955000000    -6.456000000
H     2.173000000    -0.561000000    -6.519000000
O     0.586000000    -1.524000000    -6.031000000
H     0.766000000    -2.192000000    -5.370000000
H    -0.366000000    -1.532000000    -6.127000000
O     1.808000000     0.762000000    -8.854000000
H     1.212000000     0.188000000    -9.336000000
H     2.503000000     0.180000000    -8.545000000
O     1.354000000    -9.404000000    -2.324000000
H     1.014000000    -8.517000000    -2.438000000
H     0.574000000    -9.950000000    -2.227000000
O     4.786000000     1.525000000    -7.735000000
H     4.453000000     1.625000000    -8.626000000
H     4.163000000     0.935000000    -7.311000000
O     6.736000000     0.262000000    -5.952000000
H     6.240000000     0.834000000    -6.537000000
H     6.091000000    -0.368000000    -5.629000000
O     3.577000000    -8.019000000    -1.539000000
H     2.771000000    -8.461000000    -1.806000000
H     3.418000000    -7.095000000    -1.731000000
O    -0.433000000    -5.289000000    -8.266000000
H    -0.626000000    -4.639000000    -7.591000000
H    -0.633000000    -4.845000000    -9.090000000
O     1.395000000    -2.961000000    -8.287000000
H     2.326000000    -3.022000000    -8.077000000
H     1.011000000    -2.497000000    -7.543000000
O    -0.956000000    -4.884000000    -4.472000000
H    -0.700000000    -5.799000000    -4.355000000
H    -0.579000000    -4.432000000    -3.718000000
O     5.241000000    -4.661000000    -4.699000000
H     4.747000000    -5.351000000    -5.143000000
H     6.140000000    -4.772000000    -5.010000000
O     3.750000000    -8.804000000    -4.188000000
H     4.514000000    -9.312000000    -4.461000000
H     4.082000000    -8.223000000    -3.503000000
O     1.523000000    -4.424000000    -5.731000000
H     0.574000000    -4.463000000    -5.614000000
H     1.832000000    -3.884000000    -5.004000000
O    -1.792000000    -7.525000000    -5.305000000
H    -2.049000000    -6.857000000    -5.941000000
H    -1.090000000    -8.011000000    -5.739000000
O     3.590000000    -6.445000000    -6.014000000
H     2.742000000    -6.022000000    -6.149000000
H     3.403000000    -7.171000000    -5.419000000
O     3.957000000    -1.940000000    -5.046000000
H     3.169000000    -2.016000000    -4.507000000
H     4.366000000    -2.804000000    -4.995000000
O     3.496000000    -5.664000000    -2.715000000
H     3.922000000    -5.386000000    -3.526000000
H     2.920000000    -4.935000000    -2.485000000
