215
-1453.55300
C    -3.517000000    -3.622000000     0.730000000
H    -4.257000000    -2.859000000     0.502000000
C    -2.667000000    -3.394000000     1.844000000
C    -1.739000000    -4.374000000     2.060000000
H    -1.037000000    -4.192000000     2.869000000
C    -2.525000000    -2.060000000     2.543000000
O    -3.781000000    -1.381000000     2.625000000
H    -1.754000000    -1.507000000     1.986000000
O    -2.046000000    -2.228000000     3.881000000
C    -1.137000000    -1.262000000     4.400000000
C     0.239000000    -1.592000000     4.282000000
H     0.562000000    -2.548000000     3.876000000
C     1.170000000    -0.620000000     4.457000000
O     2.465000000    -0.971000000     4.176000000
C     0.860000000     0.694000000     4.920000000
C     1.981000000     1.716000000     5.127000000
H     1.649000000     2.453000000     5.862000000
C     2.302000000     2.401000000     3.782000000
C     1.607000000     3.550000000     3.416000000
H     0.827000000     3.951000000     4.058000000
H     2.923000000     1.288000000     5.475000000
C    -0.485000000     0.999000000     5.052000000
H    -0.732000000     2.033000000     5.278000000
C    -1.505000000     0.039000000     4.735000000
C    -2.979000000     0.468000000     4.728000000
H    -3.195000000     1.300000000     5.402000000
H    -3.651000000    -0.306000000     5.103000000
C    -3.335000000     0.857000000     3.294000000
C    -3.300000000     2.195000000     2.877000000
H    -2.891000000     2.932000000     3.564000000
C    -3.829000000    -0.075000000     2.349000000
C    -4.262000000     0.362000000     1.100000000
H    -4.544000000    -0.440000000     0.422000000
C    -4.266000000     1.687000000     0.759000000
O    -4.485000000     1.945000000    -0.534000000
C    -3.373000000     2.005000000    -1.384000000
C    -3.530000000     1.232000000    -2.670000000
C    -2.527000000     1.411000000    -3.589000000
H    -1.684000000     2.080000000    -3.437000000
C    -4.444000000     0.241000000    -2.881000000
H    -5.138000000     0.034000000    -2.070000000
O    -3.069000000     3.404000000    -1.633000000
H    -2.576000000     1.458000000    -0.859000000
C    -3.827000000     2.649000000     1.693000000
C    -3.705000000     4.062000000     1.185000000
H    -3.768000000     4.700000000     2.069000000
H    -4.505000000     4.406000000     0.525000000
C    -2.330000000     4.288000000     0.530000000
C    -1.235000000     4.650000000     1.288000000
H    -1.302000000     4.736000000     2.370000000
C    -2.137000000     4.031000000    -0.849000000
C    -0.876000000     4.224000000    -1.365000000
H    -0.866000000     4.073000000    -2.441000000
C     0.207000000     4.690000000    -0.579000000
O     1.427000000     4.849000000    -1.188000000
C     2.284000000     3.734000000    -1.034000000
C     2.970000000     3.431000000    -2.352000000
C     2.279000000     3.648000000    -3.561000000
H     1.256000000     4.008000000    -3.643000000
C     4.104000000     2.629000000    -2.367000000
H     4.539000000     2.344000000    -1.412000000
O     3.109000000     4.031000000     0.117000000
H     1.663000000     2.866000000    -0.769000000
C     0.016000000     4.943000000     0.784000000
C     1.140000000     5.317000000     1.703000000
H     0.874000000     5.757000000     2.666000000
H     1.800000000     6.062000000     1.253000000
C     1.898000000     4.081000000     2.132000000
C     2.915000000     3.536000000     1.363000000
C     3.453000000     2.326000000     1.760000000
H     4.136000000     1.881000000     1.041000000
C     3.135000000     1.775000000     2.924000000
O     3.704000000     0.526000000     3.053000000
C     2.883000000    -0.664000000     2.880000000
H     2.090000000    -0.350000000     2.184000000
C     3.662000000    -1.870000000     2.225000000
C     3.389000000    -3.159000000     2.600000000
H     2.884000000    -3.315000000     3.550000000
C     4.230000000    -1.663000000     1.001000000
H     4.080000000    -0.691000000     0.539000000
C     4.724000000    -2.726000000     0.303000000
O     5.236000000    -2.392000000    -0.921000000
C     4.632000000    -4.043000000     0.719000000
H     5.121000000    -4.923000000     0.310000000
C     3.954000000    -4.199000000     1.958000000
O     3.850000000    -5.457000000     2.419000000
C     2.708000000    -6.035000000     2.902000000
C     1.620000000    -6.096000000     2.014000000
H     1.752000000    -5.808000000     0.975000000
C     2.527000000    -6.389000000     4.199000000
H     3.433000000    -6.355000000     4.799000000
C     1.246000000    -6.856000000     4.582000000
H     1.179000000    -7.201000000     5.610000000
C     0.169000000    -6.891000000     3.804000000
H    -0.807000000    -7.186000000     4.181000000
C     0.337000000    -6.547000000     2.499000000
O    -0.740000000    -6.554000000     1.614000000
C    -1.624000000    -5.544000000     1.351000000
C    -2.572000000    -5.779000000     0.374000000
H    -2.617000000    -6.747000000    -0.118000000
C    -3.460000000    -4.821000000    -0.021000000
O    -4.127000000    -4.938000000    -1.222000000
C    -5.085000000    -4.149000000    -1.731000000
C    -4.712000000    -3.130000000    -2.562000000
H    -3.660000000    -2.906000000    -2.721000000
C    -6.453000000    -4.290000000    -1.437000000
H    -6.770000000    -5.141000000    -0.839000000
C    -7.457000000    -3.489000000    -2.000000000
H    -8.481000000    -3.574000000    -1.644000000
C    -7.024000000    -2.555000000    -2.913000000
H    -7.700000000    -1.800000000    -3.308000000
C    -5.657000000    -2.394000000    -3.191000000
O    -5.287000000    -1.609000000    -4.300000000
C    -4.511000000    -0.515000000    -4.088000000
C    -3.561000000    -0.287000000    -5.049000000
H    -3.457000000    -0.948000000    -5.906000000
C    -2.630000000     0.687000000    -4.781000000
O    -1.667000000     0.701000000    -5.707000000
C    -1.049000000     1.881000000    -6.193000000
C     0.331000000     2.099000000    -5.881000000
H     1.013000000     1.333000000    -5.520000000
C    -1.787000000     2.864000000    -6.841000000
H    -2.853000000     2.776000000    -7.035000000
C    -1.155000000     4.069000000    -7.219000000
H    -1.765000000     4.899000000    -7.566000000
C     0.229000000     4.267000000    -6.977000000
H     0.710000000     5.216000000    -7.196000000
C     0.926000000     3.297000000    -6.278000000
O     2.270000000     3.463000000    -6.039000000
C     2.879000000     3.246000000    -4.791000000
C     4.089000000     2.595000000    -4.805000000
H     4.452000000     2.184000000    -5.743000000
C     4.658000000     2.223000000    -3.568000000
O     5.846000000     1.498000000    -3.629000000
C     6.317000000     0.769000000    -2.520000000
C     7.657000000     0.987000000    -2.063000000
H     8.250000000     1.795000000    -2.483000000
C     8.161000000    -0.007000000    -1.138000000
H     9.095000000     0.247000000    -0.642000000
C     7.328000000    -1.021000000    -0.693000000
H     7.813000000    -1.673000000     0.029000000
C     6.054000000    -1.242000000    -1.230000000
C     5.592000000    -0.280000000    -2.115000000
H     4.577000000    -0.499000000    -2.437000000
C     1.169000000    -0.726000000    -1.313000000
H     1.973000000    -1.126000000    -1.925000000
C     1.361000000     0.317000000    -0.419000000
H     2.357000000     0.745000000    -0.345000000
C     0.338000000     0.793000000     0.390000000
H     0.391000000     1.616000000     1.063000000
C    -0.921000000     0.328000000     0.199000000
H    -1.652000000     0.697000000     0.914000000
C    -1.168000000    -0.721000000    -0.712000000
H    -2.170000000    -1.143000000    -0.722000000
C    -0.080000000    -1.274000000    -1.467000000
C    -0.272000000    -2.320000000    -2.566000000
O    -1.372000000    -2.554000000    -3.071000000
O     0.682000000    -2.793000000    -3.181000000
O    -2.518000000    -5.401000000    -7.195000000
H    -2.891000000    -6.117000000    -6.681000000
H    -2.492000000    -4.660000000    -6.590000000
O    -3.553000000    -2.686000000    -8.209000000
H    -3.466000000    -2.773000000    -9.159000000
H    -2.878000000    -3.262000000    -7.852000000
O    -0.627000000    -3.458000000    -7.784000000
H    -0.717000000    -4.145000000    -7.124000000
H    -0.103000000    -2.782000000    -7.356000000
O     2.012000000    -5.818000000    -7.465000000
H     1.730000000    -5.407000000    -6.648000000
H     2.358000000    -5.096000000    -7.989000000
O     2.518000000    -1.037000000    -8.432000000
H     1.873000000    -1.007000000    -7.725000000
H     3.336000000    -0.755000000    -8.023000000
O     4.186000000    -4.096000000    -5.630000000
H     4.731000000    -4.314000000    -6.386000000
H     3.570000000    -4.826000000    -5.561000000
O     0.641000000    -7.567000000    -0.638000000
H     0.155000000    -6.897000000    -1.118000000
H     0.147000000    -7.685000000     0.174000000
O    -4.202000000    -7.534000000    -2.612000000
H    -4.321000000    -6.683000000    -2.191000000
H    -5.032000000    -7.990000000    -2.471000000
O     6.289000000    -3.827000000    -3.432000000
H     5.517000000    -3.331000000    -3.707000000
H     6.873000000    -3.169000000    -3.055000000
O     0.569000000    -1.326000000    -5.666000000
H     1.267000000    -1.478000000    -5.029000000
H    -0.234000000    -1.321000000    -5.145000000
O     4.772000000    -6.352000000    -2.871000000
H     5.428000000    -5.817000000    -3.318000000
H     4.148000000    -5.720000000    -2.515000000
O     1.133000000    -4.614000000    -5.210000000
H     0.892000000    -3.751000000    -4.874000000
H     0.481000000    -5.207000000    -4.835000000
O    -2.866000000    -3.394000000    -5.223000000
H    -3.611000000    -2.838000000    -4.992000000
H    -2.217000000    -3.221000000    -4.541000000
O     4.634000000    -0.732000000    -6.030000000
H     5.384000000    -0.927000000    -5.468000000
H     3.879000000    -0.764000000    -5.443000000
O    -0.903000000    -6.181000000    -4.469000000
H    -0.594000000    -7.068000000    -4.657000000
H    -1.857000000    -6.259000000    -4.451000000
O    -0.949000000    -0.572000000    -8.319000000
H    -1.217000000    -1.481000000    -8.182000000
H    -0.843000000    -0.218000000    -7.437000000
O    -0.782000000    -5.360000000    -1.875000000
H    -0.975000000    -4.437000000    -1.709000000
H    -0.997000000    -5.487000000    -2.799000000
O     2.866000000    -2.089000000    -4.305000000
H     3.191000000    -2.843000000    -4.797000000
H     2.141000000    -2.437000000    -3.785000000
O     2.791000000    -4.585000000    -2.145000000
H     2.568000000    -3.805000000    -2.654000000
H     1.963000000    -5.057000000    -2.055000000
