215
-1454.14826
C    -2.812000000    -3.783000000     0.548000000
H    -3.672000000    -3.130000000     0.672000000
C    -1.707000000    -3.573000000     1.329000000
C    -0.637000000    -4.428000000     1.153000000
H     0.214000000    -4.331000000     1.822000000
C    -1.734000000    -2.518000000     2.513000000
O    -3.078000000    -2.083000000     2.841000000
H    -1.250000000    -1.667000000     2.013000000
O    -1.162000000    -2.916000000     3.733000000
C    -0.259000000    -2.053000000     4.296000000
C     1.119000000    -2.242000000     4.115000000
H     1.498000000    -3.137000000     3.628000000
C     2.099000000    -1.313000000     4.384000000
O     3.362000000    -1.560000000     3.954000000
C     1.658000000    -0.096000000     4.930000000
C     2.607000000     1.102000000     5.039000000
H     2.225000000     1.748000000     5.833000000
C     2.770000000     1.763000000     3.694000000
C     2.162000000     2.984000000     3.554000000
H     1.571000000     3.397000000     4.368000000
H     3.589000000     0.868000000     5.456000000
C     0.283000000     0.185000000     5.159000000
H    -0.130000000     1.128000000     5.505000000
C    -0.677000000    -0.844000000     4.836000000
C    -2.187000000    -0.489000000     5.102000000
H    -2.220000000     0.178000000     5.966000000
H    -2.774000000    -1.352000000     5.420000000
C    -2.939000000     0.063000000     3.955000000
C    -3.180000000     1.455000000     3.821000000
H    -2.965000000     2.084000000     4.682000000
C    -3.224000000    -0.706000000     2.819000000
C    -3.816000000    -0.181000000     1.682000000
H    -4.129000000    -0.792000000     0.839000000
C    -4.014000000     1.175000000     1.604000000
O    -4.543000000     1.658000000     0.413000000
C    -3.659000000     2.261000000    -0.573000000
C    -4.130000000     1.942000000    -1.942000000
C    -3.853000000     2.774000000    -3.028000000
H    -3.391000000     3.757000000    -2.985000000
C    -4.632000000     0.635000000    -2.221000000
H    -4.795000000    -0.061000000    -1.402000000
O    -3.764000000     3.664000000    -0.304000000
H    -2.656000000     1.831000000    -0.440000000
C    -3.669000000     2.015000000     2.645000000
C    -3.672000000     3.502000000     2.506000000
H    -3.680000000     3.955000000     3.499000000
H    -4.630000000     3.798000000     2.072000000
C    -2.472000000     4.006000000     1.669000000
C    -1.227000000     4.297000000     2.295000000
H    -1.077000000     4.215000000     3.369000000
C    -2.711000000     4.223000000     0.318000000
C    -1.565000000     4.541000000    -0.441000000
H    -1.666000000     4.538000000    -1.524000000
C    -0.319000000     4.830000000     0.116000000
O     0.742000000     4.847000000    -0.695000000
C     1.510000000     3.695000000    -0.744000000
C     1.840000000     3.240000000    -2.174000000
C     1.162000000     3.755000000    -3.322000000
H     0.510000000     4.618000000    -3.213000000
C     2.675000000     2.161000000    -2.337000000
H     3.145000000     1.677000000    -1.485000000
O     2.677000000     3.775000000     0.027000000
H     0.959000000     2.787000000    -0.458000000
C    -0.155000000     4.730000000     1.501000000
C     1.192000000     4.879000000     2.167000000
H     0.996000000     5.230000000     3.183000000
H     1.731000000     5.730000000     1.745000000
C     2.071000000     3.647000000     2.329000000
C     2.747000000     3.127000000     1.253000000
C     3.498000000     2.039000000     1.369000000
H     4.067000000     1.738000000     0.493000000
C     3.543000000     1.321000000     2.568000000
O     4.306000000     0.134000000     2.541000000
C     3.617000000    -1.163000000     2.540000000
H     2.638000000    -1.012000000     2.063000000
C     4.362000000    -2.228000000     1.746000000
C     4.302000000    -3.536000000     2.086000000
H     3.684000000    -3.882000000     2.910000000
C     5.185000000    -1.886000000     0.680000000
H     5.274000000    -0.823000000     0.476000000
C     5.719000000    -2.828000000    -0.187000000
O     6.500000000    -2.407000000    -1.261000000
C     5.611000000    -4.148000000     0.111000000
H     6.084000000    -4.840000000    -0.581000000
C     4.930000000    -4.518000000     1.283000000
O     4.834000000    -5.792000000     1.611000000
C     3.605000000    -6.342000000     1.829000000
C     2.630000000    -5.982000000     0.882000000
H     2.873000000    -5.403000000    -0.005000000
C     3.272000000    -6.906000000     3.013000000
H     3.981000000    -7.015000000     3.829000000
C     1.921000000    -7.295000000     3.110000000
H     1.649000000    -7.779000000     4.045000000
C     0.941000000    -7.089000000     2.102000000
H    -0.023000000    -7.586000000     2.180000000
C     1.319000000    -6.429000000     0.965000000
O     0.436000000    -6.187000000    -0.041000000
C    -0.630000000    -5.349000000     0.058000000
C    -1.692000000    -5.439000000    -0.761000000
H    -1.769000000    -6.137000000    -1.590000000
C    -2.822000000    -4.678000000    -0.506000000
O    -3.850000000    -4.856000000    -1.363000000
C    -4.787000000    -3.920000000    -1.593000000
C    -4.479000000    -2.937000000    -2.584000000
H    -3.496000000    -2.870000000    -3.045000000
C    -6.053000000    -4.135000000    -1.146000000
H    -6.265000000    -4.902000000    -0.406000000
C    -7.072000000    -3.184000000    -1.423000000
H    -8.066000000    -3.241000000    -0.987000000
C    -6.746000000    -2.148000000    -2.213000000
H    -7.555000000    -1.505000000    -2.551000000
C    -5.502000000    -2.042000000    -2.828000000
O    -5.314000000    -1.065000000    -3.804000000
C    -4.884000000     0.268000000    -3.552000000
C    -4.691000000     1.137000000    -4.614000000
H    -5.013000000     0.866000000    -5.615000000
C    -4.142000000     2.359000000    -4.375000000
O    -3.901000000     3.158000000    -5.475000000
C    -2.762000000     3.907000000    -5.688000000
C    -1.497000000     3.462000000    -5.352000000
H    -1.375000000     2.422000000    -5.060000000
C    -2.950000000     5.136000000    -6.302000000
H    -3.957000000     5.392000000    -6.622000000
C    -1.905000000     5.951000000    -6.442000000
H    -2.043000000     6.879000000    -6.992000000
C    -0.639000000     5.507000000    -6.180000000
H     0.223000000     6.114000000    -6.448000000
C    -0.447000000     4.260000000    -5.671000000
O     0.826000000     3.798000000    -5.665000000
C     1.428000000     3.261000000    -4.567000000
C     2.303000000     2.129000000    -4.692000000
H     2.678000000     1.699000000    -5.618000000
C     2.844000000     1.548000000    -3.567000000
O     3.655000000     0.455000000    -3.751000000
C     4.847000000     0.310000000    -3.110000000
C     5.952000000     1.154000000    -3.422000000
H     5.840000000     2.068000000    -4.000000000
C     7.215000000     0.790000000    -2.908000000
H     8.084000000     1.440000000    -2.975000000
C     7.415000000    -0.329000000    -2.079000000
H     8.406000000    -0.632000000    -1.753000000
C     6.293000000    -1.191000000    -1.827000000
C     5.032000000    -0.772000000    -2.241000000
H     4.192000000    -1.448000000    -2.103000000
C     0.863000000    -2.113000000    -1.231000000
H     1.327000000    -3.088000000    -1.352000000
C     1.073000000    -1.500000000    -0.026000000
H     1.577000000    -2.064000000     0.755000000
C     0.516000000    -0.288000000     0.260000000
H     0.619000000     0.111000000     1.241000000
C    -0.220000000     0.363000000    -0.761000000
H    -0.625000000     1.333000000    -0.486000000
C    -0.468000000    -0.235000000    -1.988000000
H    -1.161000000     0.176000000    -2.718000000
C     0.207000000    -1.468000000    -2.214000000
C    -0.167000000    -2.135000000    -3.514000000
O    -0.915000000    -1.613000000    -4.337000000
O     0.406000000    -3.182000000    -3.832000000
O    -3.801000000    -1.319000000    -7.538000000
H    -3.600000000    -1.862000000    -8.301000000
H    -4.704000000    -1.544000000    -7.315000000
O     1.626000000    -0.533000000    -7.293000000
H     1.762000000    -1.142000000    -6.567000000
H     0.762000000    -0.154000000    -7.128000000
O    -0.971000000     0.036000000    -6.386000000
H    -0.846000000    -0.589000000    -5.672000000
H    -1.921000000     0.137000000    -6.452000000
O    -1.107000000     0.045000000    -9.520000000
H    -2.063000000    -0.007000000    -9.524000000
H    -0.898000000     0.541000000    -8.728000000
O    -3.548000000     1.335000000    -8.314000000
H    -3.640000000     1.103000000    -9.238000000
H    -3.841000000     0.556000000    -7.841000000
O     3.414000000     1.121000000    -8.062000000
H     2.804000000     0.459000000    -7.738000000
H     3.168000000     1.246000000    -8.978000000
O     4.093000000    -4.392000000    -6.474000000
H     3.776000000    -5.233000000    -6.803000000
H     4.922000000    -4.599000000    -6.044000000
O     5.410000000    -2.180000000    -4.887000000
H     5.081000000    -1.640000000    -4.169000000
H     4.644000000    -2.338000000    -5.439000000
O    -4.265000000    -5.471000000    -5.494000000
H    -3.601000000    -4.804000000    -5.668000000
H    -4.843000000    -5.070000000    -4.845000000
O     0.356000000    -3.436000000    -6.905000000
H     0.103000000    -3.232000000    -6.004000000
H    -0.425000000    -3.242000000    -7.422000000
O     0.748000000    -6.233000000    -6.665000000
H     0.794000000    -5.295000000    -6.481000000
H     0.048000000    -6.316000000    -7.313000000
O    -1.257000000    -5.343000000    -4.038000000
H    -0.605000000    -4.734000000    -3.690000000
H    -1.721000000    -4.839000000    -4.707000000
O    -4.027000000    -7.851000000    -3.279000000
H    -3.997000000    -7.892000000    -2.323000000
H    -3.927000000    -6.922000000    -3.483000000
O    -2.564000000    -3.108000000    -5.722000000
H    -3.151000000    -2.683000000    -6.347000000
H    -2.054000000    -2.391000000    -5.346000000
O     2.975000000    -3.124000000    -8.804000000
H     2.387000000    -2.388000000    -8.631000000
H     3.480000000    -3.222000000    -7.997000000
O     0.436000000    -7.698000000    -4.069000000
H     0.723000000    -7.354000000    -4.915000000
H    -0.263000000    -7.104000000    -3.794000000
O     2.494000000    -2.249000000    -5.464000000
H     1.848000000    -2.495000000    -4.802000000
H     2.687000000    -3.065000000    -5.925000000
O     2.155000000    -5.253000000    -2.627000000
H     1.426000000    -5.866000000    -2.717000000
H     1.773000000    -4.396000000    -2.819000000
O     4.701000000    -6.110000000    -2.706000000
H     3.873000000    -5.647000000    -2.834000000
H     4.525000000    -6.722000000    -1.992000000
