215
-1464.31944
C    -1.862000000    -0.793000000    -4.709000000
H    -1.468000000    -1.803000000    -4.630000000
C    -1.007000000     0.323000000    -4.700000000
C    -1.528000000     1.613000000    -4.984000000
H    -0.923000000     2.516000000    -4.965000000
C     0.413000000     0.120000000    -4.283000000
O     0.936000000    -1.076000000    -4.917000000
H     0.462000000    -0.055000000    -3.198000000
O     1.186000000     1.287000000    -4.576000000
C     2.124000000     1.741000000    -3.707000000
C     1.695000000     2.881000000    -3.023000000
H     0.724000000     3.313000000    -3.252000000
C     2.499000000     3.357000000    -1.995000000
O     2.007000000     4.435000000    -1.293000000
C     3.723000000     2.711000000    -1.746000000
C     4.683000000     3.181000000    -0.626000000
H     5.660000000     2.772000000    -0.889000000
C     4.286000000     2.551000000     0.731000000
C     4.754000000     1.328000000     1.146000000
H     5.616000000     0.853000000     0.685000000
H     4.737000000     4.272000000    -0.655000000
C     4.130000000     1.594000000    -2.533000000
H     5.061000000     1.081000000    -2.306000000
C     3.298000000     1.047000000    -3.439000000
C     3.635000000    -0.167000000    -4.346000000
H     4.721000000    -0.227000000    -4.239000000
H     3.465000000     0.046000000    -5.403000000
C     2.995000000    -1.443000000    -3.761000000
C     3.635000000    -2.097000000    -2.698000000
H     4.561000000    -1.661000000    -2.330000000
C     1.684000000    -1.833000000    -4.082000000
C     1.029000000    -2.840000000    -3.417000000
H     0.037000000    -3.215000000    -3.660000000
C     1.685000000    -3.543000000    -2.413000000
O     0.989000000    -4.503000000    -1.742000000
C     0.584000000    -4.233000000    -0.349000000
C    -0.925000000    -4.700000000    -0.070000000
C    -1.284000000    -4.988000000     1.258000000
H    -0.513000000    -4.962000000     2.024000000
C    -1.862000000    -4.705000000    -1.084000000
H    -1.562000000    -4.332000000    -2.060000000
O     1.509000000    -4.684000000     0.664000000
H     0.632000000    -3.148000000    -0.171000000
C     2.970000000    -3.162000000    -2.015000000
C     3.777000000    -3.845000000    -0.901000000
H     4.854000000    -3.760000000    -1.056000000
H     3.601000000    -4.921000000    -0.955000000
C     3.509000000    -3.243000000     0.485000000
C     4.365000000    -2.290000000     0.969000000
H     5.252000000    -1.814000000     0.558000000
C     2.391000000    -3.690000000     1.164000000
C     2.076000000    -3.246000000     2.401000000
H     1.187000000    -3.664000000     2.866000000
C     2.837000000    -2.219000000     2.889000000
O     2.322000000    -1.637000000     4.047000000
C     1.648000000    -0.380000000     3.833000000
C     0.329000000    -0.277000000     4.673000000
C    -0.421000000    -1.422000000     5.004000000
H     0.033000000    -2.403000000     4.894000000
C    -0.140000000     0.966000000     5.048000000
H     0.447000000     1.860000000     4.854000000
O     2.517000000     0.764000000     4.062000000
H     1.378000000    -0.403000000     2.766000000
C     3.987000000    -1.772000000     2.214000000
C     4.770000000    -0.626000000     2.799000000
H     5.780000000    -0.805000000     2.425000000
H     4.727000000    -0.553000000     3.887000000
C     4.253000000     0.726000000     2.298000000
C     3.187000000     1.313000000     2.953000000
C     2.711000000     2.541000000     2.556000000
H     1.881000000     2.922000000     3.145000000
C     3.273000000     3.181000000     1.481000000
O     2.635000000     4.277000000     0.897000000
C     1.591000000     4.057000000    -0.020000000
H     1.394000000     2.978000000    -0.094000000
C     0.217000000     4.684000000     0.288000000
C    -0.719000000     4.926000000    -0.771000000
H    -0.469000000     4.684000000    -1.801000000
C    -0.119000000     5.064000000     1.573000000
H     0.517000000     4.791000000     2.412000000
C    -1.312000000     5.594000000     1.846000000
O    -1.625000000     6.030000000     3.082000000
C    -2.207000000     5.941000000     0.869000000
H    -3.131000000     6.419000000     1.182000000
C    -1.948000000     5.581000000    -0.475000000
O    -2.989000000     5.753000000    -1.376000000
C    -2.863000000     5.576000000    -2.790000000
C    -3.053000000     4.318000000    -3.406000000
H    -3.109000000     3.447000000    -2.758000000
C    -2.450000000     6.636000000    -3.552000000
H    -2.262000000     7.591000000    -3.068000000
C    -2.373000000     6.494000000    -4.975000000
H    -2.104000000     7.376000000    -5.550000000
C    -2.805000000     5.333000000    -5.580000000
H    -2.767000000     5.307000000    -6.666000000
C    -2.955000000     4.197000000    -4.802000000
O    -3.395000000     3.034000000    -5.465000000
C    -2.868000000     1.827000000    -5.286000000
C    -3.718000000     0.741000000    -5.312000000
H    -4.755000000     0.759000000    -5.638000000
C    -3.206000000    -0.531000000    -5.071000000
O    -4.092000000    -1.547000000    -5.221000000
C    -3.961000000    -2.901000000    -4.782000000
C    -4.075000000    -3.316000000    -3.440000000
H    -4.325000000    -2.652000000    -2.616000000
C    -3.814000000    -3.883000000    -5.769000000
H    -3.752000000    -3.541000000    -6.798000000
C    -3.652000000    -5.228000000    -5.457000000
H    -3.546000000    -6.034000000    -6.178000000
C    -3.782000000    -5.673000000    -4.155000000
H    -3.888000000    -6.739000000    -3.972000000
C    -4.037000000    -4.679000000    -3.166000000
O    -4.152000000    -5.119000000    -1.842000000
C    -3.222000000    -5.041000000    -0.850000000
C    -3.539000000    -5.425000000     0.504000000
H    -4.521000000    -5.752000000     0.836000000
C    -2.560000000    -5.425000000     1.485000000
O    -2.917000000    -5.787000000     2.796000000
C    -2.456000000    -5.354000000     3.987000000
C    -2.632000000    -3.958000000     4.333000000
H    -3.051000000    -3.218000000     3.656000000
C    -2.044000000    -6.288000000     4.928000000
H    -2.076000000    -7.342000000     4.661000000
C    -1.876000000    -5.890000000     6.266000000
H    -1.694000000    -6.726000000     6.937000000
C    -1.901000000    -4.504000000     6.585000000
H    -1.675000000    -4.268000000     7.622000000
C    -2.329000000    -3.589000000     5.623000000
O    -2.451000000    -2.232000000     5.986000000
C    -1.637000000    -1.297000000     5.668000000
C    -2.168000000    -0.014000000     5.951000000
H    -3.186000000     0.142000000     6.300000000
C    -1.408000000     1.105000000     5.646000000
O    -1.870000000     2.300000000     6.037000000
C    -1.307000000     3.487000000     5.700000000
C    -0.093000000     3.866000000     6.276000000
H     0.434000000     3.189000000     6.944000000
C     0.506000000     5.041000000     5.836000000
H     1.457000000     5.403000000     6.217000000
C    -0.055000000     5.756000000     4.781000000
H     0.492000000     6.584000000     4.339000000
C    -1.190000000     5.341000000     4.185000000
C    -1.927000000     4.241000000     4.666000000
H    -2.866000000     3.981000000     4.185000000
C    -1.875000000    -1.139000000     0.487000000
H    -2.228000000    -2.141000000     0.720000000
C    -0.544000000    -0.688000000     0.611000000
H     0.164000000    -1.386000000     1.050000000
C    -0.142000000     0.555000000     0.080000000
H     0.943000000     0.741000000     0.168000000
C    -1.081000000     1.347000000    -0.603000000
H    -0.755000000     2.312000000    -0.983000000
C    -2.364000000     0.855000000    -0.783000000
H    -3.034000000     1.439000000    -1.408000000
C    -2.775000000    -0.384000000    -0.258000000
C    -4.192000000    -0.758000000    -0.473000000
O    -4.883000000    -0.113000000    -1.218000000
O    -4.739000000    -1.684000000     0.165000000
O    -9.013000000    -4.206000000    -2.296000000
H    -9.315000000    -5.047000000    -1.952000000
H    -9.687000000    -3.582000000    -2.026000000
O    -8.290000000    -4.059000000     1.821000000
H    -8.742000000    -3.770000000     2.613000000
H    -8.823000000    -4.783000000     1.491000000
O    -6.460000000    -3.551000000    -0.030000000
H    -6.959000000    -3.596000000     0.786000000
H    -5.869000000    -2.807000000     0.092000000
O    -6.793000000    -6.259000000    -1.403000000
H    -7.098000000    -6.147000000    -0.503000000
H    -6.053000000    -5.656000000    -1.482000000
O    -6.276000000     1.231000000    -3.400000000
H    -6.277000000     0.277000000    -3.482000000
H    -5.501000000     1.425000000    -2.872000000
O    -7.418000000    -3.856000000    -4.661000000
H    -8.091000000    -4.014000000    -3.998000000
H    -6.819000000    -3.233000000    -4.251000000
O    -7.052000000     0.386000000    -0.051000000
H    -7.541000000    -0.415000000    -0.237000000
H    -6.182000000     0.227000000    -0.416000000
O    -8.501000000     3.080000000    -4.385000000
H    -8.194000000     2.525000000    -3.668000000
H    -7.825000000     2.998000000    -5.058000000
O    -7.162000000     0.647000000     5.151000000
H    -6.429000000     1.242000000     5.308000000
H    -7.480000000     0.882000000     4.279000000
O    -9.098000000    -0.960000000    -2.942000000
H    -9.103000000    -0.668000000    -3.853000000
H    -8.228000000    -1.340000000    -2.816000000
O    -4.905000000     1.312000000     3.941000000
H    -4.080000000     1.495000000     3.492000000
H    -5.059000000     0.380000000     3.787000000
O    -5.372000000    -1.077000000     2.752000000
H    -4.984000000    -1.331000000     1.915000000
H    -6.272000000    -0.833000000     2.535000000
O    -5.529000000    -1.431000000     5.360000000
H    -6.149000000    -0.730000000     5.561000000
H    -5.428000000    -1.395000000     4.409000000
O    -5.070000000     3.378000000     1.226000000
H    -5.574000000     3.836000000     1.898000000
H    -4.404000000     2.894000000     1.714000000
O    -6.810000000    -1.976000000    -2.201000000
H    -6.227000000    -1.264000000    -1.940000000
H    -6.687000000    -2.645000000    -1.527000000
O    -8.517000000     0.522000000     2.565000000
H    -9.302000000     1.038000000     2.382000000
H    -7.980000000     0.616000000     1.779000000
O    -8.869000000    -2.012000000    -0.005000000
H    -8.758000000    -2.664000000     0.687000000
H    -8.471000000    -2.413000000    -0.778000000
O    -2.466000000     1.728000000     2.474000000
H    -2.214000000     2.168000000     1.662000000
H    -1.829000000     1.021000000     2.572000000
O    -6.374000000     3.240000000    -1.223000000
H    -5.928000000     3.634000000    -0.473000000
H    -6.547000000     2.338000000    -0.952000000
