215
-1459.36586
C    -3.474000000    -3.706000000    -0.210000000
H    -4.098000000    -2.879000000    -0.540000000
C    -2.875000000    -3.675000000     1.028000000
C    -2.044000000    -4.730000000     1.316000000
H    -1.632000000    -4.810000000     2.319000000
C    -3.042000000    -2.414000000     1.845000000
O    -4.323000000    -1.751000000     1.829000000
H    -2.384000000    -1.610000000     1.484000000
O    -2.858000000    -2.642000000     3.220000000
C    -2.008000000    -1.768000000     3.865000000
C    -0.626000000    -2.090000000     3.784000000
H    -0.331000000    -3.001000000     3.271000000
C     0.310000000    -1.242000000     4.262000000
O     1.678000000    -1.506000000     4.242000000
C    -0.182000000     0.002000000     4.817000000
C     0.792000000     0.982000000     5.453000000
H     0.314000000     1.586000000     6.227000000
C     1.402000000     1.875000000     4.400000000
C     0.736000000     3.023000000     3.986000000
H    -0.222000000     3.316000000     4.407000000
H     1.513000000     0.465000000     6.089000000
C    -1.529000000     0.364000000     4.814000000
H    -1.763000000     1.375000000     5.140000000
C    -2.445000000    -0.539000000     4.321000000
C    -3.933000000    -0.155000000     4.113000000
H    -4.258000000     0.593000000     4.840000000
H    -4.667000000    -0.937000000     4.320000000
C    -4.171000000     0.430000000     2.797000000
C    -4.164000000     1.803000000     2.682000000
H    -3.886000000     2.383000000     3.558000000
C    -4.384000000    -0.385000000     1.689000000
C    -4.595000000     0.167000000     0.410000000
H    -4.804000000    -0.444000000    -0.465000000
C    -4.632000000     1.527000000     0.320000000
O    -4.730000000     1.907000000    -1.016000000
C    -3.436000000     2.188000000    -1.751000000
C    -3.419000000     1.596000000    -3.200000000
C    -2.683000000     2.213000000    -4.223000000
H    -2.004000000     3.000000000    -3.905000000
C    -4.125000000     0.476000000    -3.508000000
H    -4.521000000    -0.102000000    -2.677000000
O    -3.196000000     3.619000000    -1.627000000
H    -2.576000000     1.731000000    -1.239000000
C    -4.306000000     2.385000000     1.420000000
C    -4.121000000     3.873000000     1.188000000
H    -4.187000000     4.410000000     2.137000000
H    -4.803000000     4.340000000     0.475000000
C    -2.683000000     4.122000000     0.714000000
C    -1.749000000     4.564000000     1.686000000
H    -2.073000000     4.649000000     2.720000000
C    -2.290000000     3.982000000    -0.621000000
C    -0.935000000     4.155000000    -0.980000000
H    -0.605000000     4.157000000    -2.016000000
C    -0.024000000     4.571000000     0.018000000
O     1.289000000     4.690000000    -0.408000000
C     2.121000000     3.560000000     0.021000000
C     2.915000000     3.014000000    -1.106000000
C     2.292000000     2.513000000    -2.217000000
H     1.211000000     2.624000000    -2.243000000
C     4.327000000     2.930000000    -1.108000000
H     4.837000000     3.341000000    -0.241000000
O     2.866000000     3.999000000     1.145000000
H     1.434000000     2.797000000     0.414000000
C    -0.407000000     4.769000000     1.354000000
C     0.562000000     5.078000000     2.509000000
H     0.151000000     5.591000000     3.381000000
H     1.375000000     5.662000000     2.072000000
C     1.255000000     3.833000000     2.965000000
C     2.428000000     3.428000000     2.356000000
C     3.111000000     2.223000000     2.714000000
H     3.951000000     1.894000000     2.107000000
C     2.621000000     1.516000000     3.801000000
O     3.160000000     0.282000000     3.955000000
C     2.477000000    -0.728000000     3.184000000
H     1.681000000    -0.318000000     2.545000000
C     3.494000000    -1.564000000     2.382000000
C     3.085000000    -2.868000000     2.081000000
H     2.156000000    -3.359000000     2.359000000
C     4.777000000    -1.099000000     2.127000000
H     5.042000000    -0.089000000     2.430000000
C     5.487000000    -1.800000000     1.222000000
O     6.875000000    -1.509000000     0.964000000
C     5.061000000    -3.085000000     0.726000000
H     5.758000000    -3.533000000     0.022000000
C     3.890000000    -3.635000000     1.205000000
O     3.453000000    -4.866000000     0.695000000
C     2.526000000    -5.666000000     1.349000000
C     1.206000000    -5.838000000     0.850000000
H     0.744000000    -5.238000000     0.070000000
C     2.921000000    -6.376000000     2.509000000
H     3.890000000    -6.149000000     2.945000000
C     2.017000000    -7.223000000     3.159000000
H     2.217000000    -7.755000000     4.086000000
C     0.734000000    -7.389000000     2.603000000
H     0.034000000    -8.037000000     3.125000000
C     0.335000000    -6.704000000     1.444000000
O    -0.919000000    -6.926000000     0.897000000
C    -1.823000000    -5.888000000     0.487000000
C    -2.562000000    -5.849000000    -0.738000000
H    -2.397000000    -6.672000000    -1.428000000
C    -3.372000000    -4.804000000    -1.084000000
O    -3.860000000    -4.851000000    -2.370000000
C    -4.792000000    -3.970000000    -2.852000000
C    -4.451000000    -3.104000000    -3.895000000
H    -3.586000000    -3.183000000    -4.548000000
C    -6.034000000    -3.867000000    -2.187000000
H    -6.172000000    -4.538000000    -1.343000000
C    -6.996000000    -2.928000000    -2.625000000
H    -8.001000000    -2.816000000    -2.228000000
C    -6.571000000    -2.065000000    -3.626000000
H    -7.226000000    -1.360000000    -4.132000000
C    -5.348000000    -2.099000000    -4.239000000
O    -5.057000000    -1.095000000    -5.201000000
C    -4.203000000    -0.016000000    -4.842000000
C    -3.508000000     0.653000000    -5.855000000
H    -3.639000000     0.440000000    -6.913000000
C    -2.717000000     1.748000000    -5.490000000
O    -1.885000000     2.344000000    -6.514000000
C    -0.518000000     2.609000000    -6.303000000
C     0.279000000     1.809000000    -5.488000000
H    -0.143000000     1.042000000    -4.844000000
C     0.017000000     3.554000000    -7.087000000
H    -0.705000000     4.213000000    -7.562000000
C     1.406000000     3.741000000    -7.100000000
H     1.918000000     4.481000000    -7.711000000
C     2.190000000     3.017000000    -6.185000000
H     3.249000000     3.225000000    -6.050000000
C     1.593000000     2.059000000    -5.372000000
O     2.272000000     1.395000000    -4.347000000
C     2.978000000     1.957000000    -3.321000000
C     4.354000000     1.839000000    -3.341000000
H     4.863000000     1.188000000    -4.046000000
C     4.989000000     2.297000000    -2.195000000
O     6.370000000     2.166000000    -2.204000000
C     7.001000000     1.582000000    -1.127000000
C     8.194000000     2.113000000    -0.703000000
H     8.635000000     2.999000000    -1.153000000
C     8.934000000     1.439000000     0.289000000
H     9.858000000     1.887000000     0.644000000
C     8.449000000     0.251000000     0.799000000
H     8.899000000    -0.119000000     1.716000000
C     7.330000000    -0.366000000     0.357000000
C     6.587000000     0.357000000    -0.627000000
H     5.795000000    -0.230000000    -1.085000000
C     1.776000000    -1.348000000    -1.244000000
H     2.798000000    -1.715000000    -1.296000000
C     1.536000000    -0.320000000    -0.446000000
H     2.325000000     0.155000000     0.131000000
C     0.244000000     0.160000000    -0.234000000
H     0.098000000     1.017000000     0.424000000
C    -0.808000000    -0.358000000    -1.043000000
H    -1.831000000    -0.032000000    -0.874000000
C    -0.530000000    -1.348000000    -2.019000000
H    -1.303000000    -1.832000000    -2.611000000
C     0.770000000    -1.896000000    -2.017000000
C     1.061000000    -3.010000000    -2.984000000
O     0.294000000    -3.269000000    -3.918000000
O     2.158000000    -3.565000000    -3.026000000
O    -0.175000000    -1.146000000    -8.467000000
H     0.161000000    -1.917000000    -8.009000000
H     0.363000000    -1.082000000    -9.255000000
O    -2.637000000    -6.830000000    -4.620000000
H    -1.882000000    -6.242000000    -4.626000000
H    -2.331000000    -7.607000000    -4.152000000
O     6.742000000    -5.629000000    -1.247000000
H     7.190000000    -5.372000000    -2.052000000
H     6.062000000    -6.238000000    -1.536000000
O     0.357000000    -8.711000000    -5.122000000
H    -0.209000000    -8.511000000    -4.377000000
H     1.091000000    -8.102000000    -5.036000000
O    -0.785000000    -4.973000000    -7.183000000
H    -1.463000000    -4.297000000    -7.186000000
H    -1.088000000    -5.618000000    -7.822000000
O     3.622000000    -2.229000000    -7.625000000
H     2.868000000    -2.564000000    -7.140000000
H     3.908000000    -1.465000000    -7.123000000
O     2.756000000    -5.960000000    -7.921000000
H     2.308000000    -5.116000000    -7.984000000
H     3.109000000    -5.978000000    -7.032000000
O     3.465000000    -4.863000000    -5.201000000
H     3.599000000    -5.765000000    -4.909000000
H     2.864000000    -4.489000000    -4.557000000
O    -1.257000000    -2.132000000    -5.616000000
H    -0.628000000    -1.455000000    -5.867000000
H    -0.815000000    -2.624000000    -4.923000000
O     2.436000000    -6.102000000    -2.286000000
H     1.827000000    -6.437000000    -2.944000000
H     2.305000000    -5.154000000    -2.300000000
O     6.413000000    -3.799000000    -5.293000000
H     5.692000000    -4.308000000    -4.923000000
H     6.360000000    -2.952000000    -4.849000000
O     0.180000000    -5.797000000    -4.643000000
H    -0.132000000    -5.495000000    -5.496000000
H     0.295000000    -4.994000000    -4.133000000
O    -2.840000000    -3.207000000    -7.412000000
H    -2.537000000    -2.683000000    -6.671000000
H    -3.572000000    -2.709000000    -7.774000000
O     4.777000000    -7.130000000    -2.360000000
H     4.479000000    -8.012000000    -2.584000000
H     3.978000000    -6.603000000    -2.348000000
O     7.032000000    -1.874000000    -3.030000000
H     6.160000000    -2.216000000    -2.832000000
H     7.578000000    -2.654000000    -3.128000000
O     1.417000000    -3.402000000    -6.324000000
H     1.307000000    -3.336000000    -5.375000000
H     0.666000000    -3.918000000    -6.617000000
O     4.794000000    -3.061000000    -2.733000000
H     4.887000000    -3.938000000    -2.362000000
H     3.857000000    -2.973000000    -2.909000000
O     2.243000000    -8.568000000    -0.764000000
H     2.112000000    -7.652000000    -1.009000000
H     2.656000000    -8.965000000    -1.532000000
O     4.173000000    -7.636000000    -5.963000000
H     4.829000000    -7.548000000    -6.655000000
H     3.701000000    -8.439000000    -6.180000000
