215
-1469.95403
C    -4.204000000    -3.863000000    -0.337000000
H    -4.757000000    -2.960000000    -0.580000000
C    -3.304000000    -3.759000000     0.703000000
C    -2.355000000    -4.784000000     0.875000000
H    -1.523000000    -4.741000000     1.573000000
C    -3.165000000    -2.608000000     1.648000000
O    -4.423000000    -1.844000000     1.835000000
H    -2.386000000    -1.971000000     1.203000000
O    -2.631000000    -2.882000000     2.902000000
C    -1.818000000    -1.931000000     3.461000000
C    -0.493000000    -2.225000000     3.413000000
H    -0.142000000    -3.130000000     2.924000000
C     0.412000000    -1.389000000     4.003000000
O     1.751000000    -1.845000000     4.004000000
C     0.038000000    -0.266000000     4.744000000
C     1.003000000     0.597000000     5.486000000
H     0.461000000     1.013000000     6.338000000
C     1.671000000     1.556000000     4.515000000
C     1.012000000     2.734000000     4.200000000
H     0.115000000     3.041000000     4.732000000
H     1.876000000     0.090000000     5.903000000
C    -1.303000000     0.111000000     4.692000000
H    -1.630000000     1.040000000     5.152000000
C    -2.244000000    -0.746000000     4.071000000
C    -3.656000000    -0.368000000     4.088000000
H    -3.818000000     0.297000000     4.938000000
H    -4.337000000    -1.217000000     4.186000000
C    -3.992000000     0.278000000     2.792000000
C    -3.893000000     1.690000000     2.602000000
H    -3.659000000     2.345000000     3.437000000
C    -4.345000000    -0.477000000     1.649000000
C    -4.588000000     0.092000000     0.388000000
H    -4.831000000    -0.552000000    -0.453000000
C    -4.543000000     1.469000000     0.215000000
O    -4.440000000     1.971000000    -1.070000000
C    -3.159000000     2.244000000    -1.631000000
C    -3.018000000     1.748000000    -3.057000000
C    -2.497000000     2.512000000    -4.070000000
H    -2.138000000     3.503000000    -3.804000000
C    -3.360000000     0.430000000    -3.351000000
H    -3.701000000    -0.236000000    -2.563000000
O    -2.952000000     3.693000000    -1.540000000
H    -2.506000000     1.688000000    -0.942000000
C    -4.189000000     2.253000000     1.359000000
C    -4.044000000     3.774000000     1.196000000
H    -4.357000000     4.234000000     2.136000000
H    -4.732000000     4.141000000     0.432000000
C    -2.600000000     4.064000000     0.928000000
C    -1.668000000     4.256000000     1.917000000
H    -1.958000000     4.330000000     2.962000000
C    -2.206000000     4.014000000    -0.446000000
C    -0.886000000     4.298000000    -0.744000000
H    -0.515000000     4.264000000    -1.766000000
C     0.060000000     4.415000000     0.283000000
O     1.361000000     4.527000000    -0.077000000
C     2.225000000     3.514000000     0.202000000
C     3.121000000     3.192000000    -0.966000000
C     2.473000000     2.911000000    -2.218000000
H     1.411000000     3.011000000    -2.424000000
C     4.505000000     2.968000000    -0.868000000
H     4.967000000     3.124000000     0.103000000
O     2.999000000     3.841000000     1.347000000
H     1.590000000     2.632000000     0.375000000
C    -0.318000000     4.376000000     1.627000000
C     0.615000000     4.807000000     2.792000000
H     0.026000000     5.173000000     3.635000000
H     1.337000000     5.595000000     2.567000000
C     1.460000000     3.522000000     3.126000000
C     2.605000000     3.171000000     2.443000000
C     3.309000000     1.973000000     2.771000000
H     4.243000000     1.698000000     2.290000000
C     2.834000000     1.168000000     3.791000000
O     3.354000000    -0.103000000     3.913000000
C     2.676000000    -1.144000000     3.191000000
H     2.047000000    -0.615000000     2.458000000
C     3.532000000    -2.028000000     2.292000000
C     2.936000000    -3.190000000     1.750000000
H     1.951000000    -3.511000000     2.080000000
C     4.771000000    -1.612000000     1.891000000
H     5.262000000    -0.724000000     2.281000000
C     5.490000000    -2.335000000     1.006000000
O     6.683000000    -1.937000000     0.606000000
C     4.901000000    -3.478000000     0.390000000
H     5.378000000    -4.028000000    -0.416000000
C     3.646000000    -3.914000000     0.769000000
O     2.974000000    -4.983000000     0.076000000
C     2.072000000    -5.794000000     0.791000000
C     0.825000000    -5.873000000     0.273000000
H     0.527000000    -5.380000000    -0.649000000
C     2.380000000    -6.358000000     2.051000000
H     3.299000000    -6.245000000     2.620000000
C     1.465000000    -7.265000000     2.653000000
H     1.697000000    -7.829000000     3.553000000
C     0.257000000    -7.551000000     2.009000000
H    -0.506000000    -8.234000000     2.373000000
C    -0.098000000    -6.820000000     0.815000000
O    -1.387000000    -6.938000000     0.233000000
C    -2.303000000    -5.896000000     0.016000000
C    -3.309000000    -6.006000000    -0.974000000
H    -3.312000000    -6.767000000    -1.750000000
C    -4.243000000    -4.992000000    -1.128000000
O    -5.053000000    -5.083000000    -2.223000000
C    -5.419000000    -3.887000000    -2.879000000
C    -4.464000000    -3.217000000    -3.695000000
H    -3.524000000    -3.674000000    -3.991000000
C    -6.581000000    -3.235000000    -2.479000000
H    -7.212000000    -3.888000000    -1.882000000
C    -6.880000000    -2.023000000    -2.948000000
H    -7.866000000    -1.664000000    -2.664000000
C    -5.931000000    -1.329000000    -3.728000000
H    -6.182000000    -0.398000000    -4.229000000
C    -4.726000000    -1.933000000    -4.087000000
O    -3.780000000    -1.342000000    -4.921000000
C    -3.281000000    -0.066000000    -4.640000000
C    -2.797000000     0.654000000    -5.686000000
H    -2.682000000     0.118000000    -6.625000000
C    -2.288000000     1.929000000    -5.332000000
O    -1.658000000     2.651000000    -6.331000000
C    -0.412000000     3.197000000    -6.085000000
C     0.551000000     2.445000000    -5.448000000
H     0.390000000     1.432000000    -5.091000000
C    -0.144000000     4.475000000    -6.556000000
H    -0.944000000     5.048000000    -7.017000000
C     1.123000000     5.051000000    -6.358000000
H     1.358000000     6.066000000    -6.668000000
C     2.083000000     4.318000000    -5.606000000
H     3.013000000     4.796000000    -5.307000000
C     1.779000000     3.003000000    -5.170000000
O     2.715000000     2.237000000    -4.535000000
C     3.252000000     2.581000000    -3.350000000
C     4.596000000     2.381000000    -3.227000000
H     5.155000000     2.043000000    -4.096000000
C     5.176000000     2.522000000    -2.009000000
O     6.508000000     2.240000000    -1.908000000
C     6.949000000     1.388000000    -0.903000000
C     7.770000000     2.066000000    -0.050000000
H     7.909000000     3.132000000    -0.209000000
C     8.194000000     1.356000000     1.067000000
H     8.802000000     1.908000000     1.779000000
C     7.808000000     0.039000000     1.331000000
H     8.215000000    -0.444000000     2.216000000
C     7.015000000    -0.586000000     0.432000000
C     6.466000000     0.059000000    -0.663000000
H     5.842000000    -0.464000000    -1.382000000
C     1.620000000    -1.158000000    -0.811000000
H     2.589000000    -1.463000000    -1.197000000
C     1.497000000    -0.148000000     0.156000000
H     2.380000000     0.360000000     0.534000000
C     0.255000000     0.343000000     0.415000000
H     0.189000000     1.306000000     0.933000000
C    -0.857000000    -0.205000000    -0.187000000
H    -1.845000000     0.107000000     0.142000000
C    -0.717000000    -1.117000000    -1.224000000
H    -1.592000000    -1.522000000    -1.727000000
C     0.467000000    -1.616000000    -1.516000000
C     0.576000000    -2.611000000    -2.625000000
O    -0.392000000    -3.021000000    -3.256000000
O     1.673000000    -2.983000000    -2.970000000
O     6.387000000    -4.819000000    -3.607000000
H     6.850000000    -3.983000000    -3.548000000
H     5.577000000    -4.679000000    -3.117000000
O    -1.903000000    -2.228000000    -8.938000000
H    -1.479000000    -3.021000000    -8.609000000
H    -1.599000000    -2.151000000    -9.842000000
O     1.619000000    -4.180000000    -5.281000000
H     1.537000000    -3.826000000    -4.396000000
H     1.270000000    -3.491000000    -5.847000000
O     4.810000000    -6.829000000    -4.664000000
H     4.895000000    -6.047000000    -4.119000000
H     5.182000000    -6.575000000    -5.509000000
O    -0.666000000    -1.748000000    -5.793000000
H    -0.453000000    -1.933000000    -4.878000000
H    -1.458000000    -2.259000000    -5.963000000
O     2.110000000    -7.275000000    -4.300000000
H     2.168000000    -7.159000000    -3.351000000
H     2.881000000    -6.825000000    -4.644000000
O     4.192000000    -3.434000000    -7.675000000
H     3.840000000    -3.595000000    -6.800000000
H     3.683000000    -2.694000000    -8.006000000
O     3.986000000     0.509000000    -6.209000000
H     3.721000000     1.154000000    -5.553000000
H     4.200000000    -0.274000000    -5.701000000
O    -0.569000000    -5.376000000    -4.033000000
H     0.264000000    -5.459000000    -4.496000000
H    -0.531000000    -4.512000000    -3.624000000
O    -2.848000000    -5.131000000    -5.678000000
H    -2.323000000    -5.390000000    -4.921000000
H    -3.692000000    -5.563000000    -5.543000000
O    -0.445000000    -7.434000000    -2.460000000
H    -0.501000000    -6.853000000    -3.219000000
H    -0.468000000    -6.846000000    -1.705000000
O     2.641000000    -1.028000000    -7.722000000
H     2.955000000    -0.359000000    -7.113000000
H     1.708000000    -0.840000000    -7.824000000
O     3.482000000    -0.990000000    -3.764000000
H     3.049000000    -1.812000000    -3.532000000
H     3.157000000    -0.359000000    -3.122000000
O     3.701000000    -4.708000000    -2.511000000
H     3.105000000    -4.064000000    -2.895000000
H     3.415000000    -4.787000000    -1.601000000
O    -0.202000000    -4.264000000    -8.454000000
H     0.081000000    -5.176000000    -8.378000000
H     0.459000000    -3.854000000    -9.012000000
O     7.232000000    -2.286000000    -3.089000000
H     6.774000000    -1.560000000    -2.665000000
H     8.154000000    -2.030000000    -3.073000000
O     0.028000000     0.035000000    -7.688000000
H    -0.312000000    -0.245000000    -8.538000000
H    -0.591000000    -0.325000000    -7.052000000
O    -1.860000000    -7.197000000    -7.282000000
H    -2.220000000    -6.450000000    -6.804000000
H    -1.210000000    -7.572000000    -6.687000000
O     1.846000000    -5.997000000    -7.339000000
H     1.713000000    -6.856000000    -6.938000000
H     1.672000000    -5.374000000    -6.633000000
