215
-1459.73982
C    -3.744000000    -3.800000000    -0.190000000
H    -4.416000000    -2.971000000    -0.394000000
C    -3.018000000    -3.671000000     1.014000000
C    -2.084000000    -4.693000000     1.365000000
H    -1.400000000    -4.518000000     2.192000000
C    -3.144000000    -2.368000000     1.822000000
O    -4.452000000    -1.772000000     1.827000000
H    -2.317000000    -1.705000000     1.530000000
O    -2.891000000    -2.646000000     3.238000000
C    -2.136000000    -1.737000000     3.958000000
C    -0.738000000    -2.013000000     3.998000000
H    -0.422000000    -2.964000000     3.576000000
C     0.190000000    -1.057000000     4.387000000
O     1.495000000    -1.391000000     4.309000000
C    -0.251000000     0.232000000     4.815000000
C     0.735000000     1.283000000     5.354000000
H     0.168000000     2.021000000     5.925000000
C     1.463000000     2.007000000     4.209000000
C     0.887000000     3.180000000     3.708000000
H    -0.057000000     3.547000000     4.102000000
H     1.445000000     0.876000000     6.077000000
C    -1.651000000     0.461000000     4.856000000
H    -2.082000000     1.423000000     5.123000000
C    -2.570000000    -0.445000000     4.341000000
C    -4.003000000    -0.078000000     4.074000000
H    -4.232000000     0.567000000     4.924000000
H    -4.719000000    -0.883000000     4.255000000
C    -4.149000000     0.443000000     2.661000000
C    -3.966000000     1.785000000     2.419000000
H    -3.604000000     2.444000000     3.204000000
C    -4.513000000    -0.402000000     1.615000000
C    -4.696000000     0.066000000     0.264000000
H    -4.996000000    -0.564000000    -0.569000000
C    -4.481000000     1.429000000     0.063000000
O    -4.395000000     1.952000000    -1.224000000
C    -3.173000000     2.164000000    -1.959000000
C    -3.226000000     1.690000000    -3.387000000
C    -2.580000000     2.350000000    -4.399000000
H    -2.145000000     3.338000000    -4.271000000
C    -3.841000000     0.451000000    -3.647000000
H    -4.368000000     0.053000000    -2.784000000
O    -2.957000000     3.585000000    -1.912000000
H    -2.326000000     1.658000000    -1.472000000
C    -4.178000000     2.292000000     1.101000000
C    -3.903000000     3.776000000     0.853000000
H    -4.027000000     4.228000000     1.839000000
H    -4.733000000     4.171000000     0.263000000
C    -2.463000000     3.981000000     0.466000000
C    -1.498000000     4.380000000     1.445000000
H    -1.832000000     4.514000000     2.470000000
C    -2.052000000     3.972000000    -0.881000000
C    -0.763000000     4.365000000    -1.203000000
H    -0.514000000     4.347000000    -2.260000000
C     0.189000000     4.667000000    -0.269000000
O     1.505000000     4.707000000    -0.700000000
C     2.346000000     3.599000000    -0.347000000
C     3.206000000     3.144000000    -1.598000000
C     2.543000000     3.028000000    -2.804000000
H     1.544000000     3.416000000    -2.985000000
C     4.464000000     2.618000000    -1.356000000
H     4.907000000     2.688000000    -0.366000000
O     3.111000000     3.905000000     0.872000000
H     1.800000000     2.669000000    -0.131000000
C    -0.169000000     4.745000000     1.050000000
C     0.776000000     5.145000000     2.114000000
H     0.333000000     5.692000000     2.948000000
H     1.515000000     5.834000000     1.700000000
C     1.474000000     3.877000000     2.671000000
C     2.683000000     3.375000000     2.087000000
C     3.210000000     2.140000000     2.528000000
H     4.040000000     1.633000000     2.042000000
C     2.633000000     1.471000000     3.600000000
O     3.059000000     0.243000000     3.957000000
C     2.390000000    -0.832000000     3.312000000
H     1.846000000    -0.515000000     2.410000000
C     3.519000000    -1.794000000     2.728000000
C     3.174000000    -3.138000000     2.520000000
H     2.180000000    -3.397000000     2.873000000
C     4.792000000    -1.345000000     2.410000000
H     5.096000000    -0.337000000     2.682000000
C     5.653000000    -2.250000000     1.790000000
O     6.905000000    -1.782000000     1.461000000
C     5.289000000    -3.580000000     1.545000000
H     6.004000000    -4.237000000     1.057000000
C     4.008000000    -4.047000000     1.847000000
O     3.568000000    -5.344000000     1.516000000
C     2.430000000    -5.915000000     1.982000000
C     1.217000000    -5.845000000     1.286000000
H     1.165000000    -5.339000000     0.325000000
C     2.520000000    -6.701000000     3.125000000
H     3.457000000    -6.738000000     3.674000000
C     1.497000000    -7.488000000     3.487000000
H     1.607000000    -8.146000000     4.345000000
C     0.258000000    -7.463000000     2.887000000
H    -0.578000000    -8.103000000     3.156000000
C     0.098000000    -6.573000000     1.784000000
O    -0.979000000    -6.781000000     0.906000000
C    -1.905000000    -5.798000000     0.609000000
C    -2.648000000    -5.898000000    -0.540000000
H    -2.401000000    -6.724000000    -1.203000000
C    -3.568000000    -4.933000000    -0.979000000
O    -4.128000000    -5.162000000    -2.235000000
C    -4.798000000    -4.187000000    -2.854000000
C    -4.133000000    -3.198000000    -3.637000000
H    -3.066000000    -3.266000000    -3.835000000
C    -6.132000000    -4.132000000    -2.637000000
H    -6.672000000    -4.715000000    -1.896000000
C    -6.861000000    -3.117000000    -3.207000000
H    -7.930000000    -2.981000000    -3.069000000
C    -6.267000000    -2.100000000    -3.959000000
H    -6.844000000    -1.356000000    -4.503000000
C    -4.926000000    -2.189000000    -4.209000000
O    -4.415000000    -1.367000000    -5.152000000
C    -3.814000000    -0.083000000    -4.920000000
C    -3.181000000     0.555000000    -5.941000000
H    -3.115000000     0.012000000    -6.880000000
C    -2.526000000     1.790000000    -5.675000000
O    -1.902000000     2.464000000    -6.675000000
C    -0.666000000     3.004000000    -6.427000000
C     0.363000000     2.314000000    -5.834000000
H     0.227000000     1.275000000    -5.544000000
C    -0.490000000     4.387000000    -6.790000000
H    -1.275000000     4.951000000    -7.286000000
C     0.740000000     4.963000000    -6.462000000
H     0.795000000     6.025000000    -6.687000000
C     1.734000000     4.250000000    -5.789000000
H     2.690000000     4.763000000    -5.708000000
C     1.569000000     2.909000000    -5.470000000
O     2.532000000     2.052000000    -4.955000000
C     3.161000000     2.203000000    -3.776000000
C     4.468000000     1.664000000    -3.572000000
H     4.995000000     1.151000000    -4.372000000
C     5.096000000     1.882000000    -2.337000000
O     6.256000000     1.238000000    -2.171000000
C     6.804000000     0.878000000    -0.967000000
C     7.813000000     1.704000000    -0.394000000
H     8.209000000     2.596000000    -0.873000000
C     8.374000000     1.419000000     0.822000000
H     9.074000000     2.098000000     1.304000000
C     8.049000000     0.219000000     1.415000000
H     8.647000000    -0.184000000     2.228000000
C     7.108000000    -0.593000000     0.854000000
C     6.420000000    -0.243000000    -0.314000000
H     5.613000000    -0.845000000    -0.724000000
C     1.891000000    -1.411000000    -0.652000000
H     2.836000000    -1.947000000    -0.674000000
C     1.711000000    -0.227000000     0.063000000
H     2.613000000     0.249000000     0.441000000
C     0.496000000     0.371000000     0.281000000
H     0.377000000     1.267000000     0.866000000
C    -0.625000000    -0.275000000    -0.238000000
H    -1.594000000     0.198000000    -0.099000000
C    -0.556000000    -1.505000000    -0.905000000
H    -1.388000000    -1.981000000    -1.416000000
C     0.738000000    -2.109000000    -1.047000000
C     0.951000000    -3.316000000    -1.932000000
O     0.184000000    -3.521000000    -2.875000000
O     2.016000000    -3.885000000    -1.965000000
O    -3.320000000    -6.294000000    -4.685000000
H    -3.850000000    -5.717000000    -4.136000000
H    -2.453000000    -5.887000000    -4.694000000
O     6.465000000    -3.190000000    -2.304000000
H     7.028000000    -3.300000000    -1.538000000
H     7.042000000    -2.827000000    -2.976000000
O     1.520000000    -9.743000000    -2.868000000
H     0.896000000   -10.160000000    -2.275000000
H     1.857000000   -10.461000000    -3.405000000
O     4.027000000    -8.610000000    -2.744000000
H     3.222000000    -9.113000000    -2.868000000
H     3.730000000    -7.754000000    -2.434000000
O     1.934000000    -4.332000000    -7.007000000
H     1.807000000    -4.395000000    -6.061000000
H     2.153000000    -3.413000000    -7.160000000
O    -0.783000000   -10.560000000    -1.136000000
H    -1.083000000    -9.653000000    -1.083000000
H    -1.587000000   -11.077000000    -1.180000000
O     0.059000000    -1.342000000    -4.368000000
H     0.285000000    -2.147000000    -3.901000000
H    -0.647000000    -0.955000000    -3.849000000
O     7.390000000    -5.930000000    -3.738000000
H     7.063000000    -5.499000000    -2.949000000
H     6.713000000    -6.570000000    -3.959000000
O     2.108000000    -5.277000000    -4.441000000
H     2.856000000    -5.835000000    -4.226000000
H     1.870000000    -4.865000000    -3.610000000
O     4.249000000    -5.864000000    -7.445000000
H     4.791000000    -5.367000000    -6.832000000
H     3.357000000    -5.563000000    -7.274000000
O     3.252000000    -2.053000000    -6.098000000
H     2.546000000    -2.634000000    -5.814000000
H     3.870000000    -2.053000000    -5.367000000
O    -0.794000000    -5.099000000    -4.701000000
H    -0.044000000    -5.610000000    -5.005000000
H    -0.461000000    -4.606000000    -3.951000000
O    -1.751000000    -4.369000000    -7.303000000
H    -1.638000000    -4.799000000    -6.455000000
H    -2.351000000    -4.940000000    -7.783000000
O    -0.755000000    -7.776000000    -2.974000000
H    -0.440000000    -6.925000000    -3.278000000
H     0.041000000    -8.278000000    -2.800000000
O     2.978000000     0.514000000    -7.299000000
H     3.003000000     1.211000000    -6.644000000
H     2.781000000    -0.278000000    -6.799000000
O     4.092000000    -2.944000000    -3.475000000
H     3.391000000    -3.295000000    -2.926000000
H     4.872000000    -2.985000000    -2.921000000
O     3.149000000    -6.422000000    -1.445000000
H     2.929000000    -5.503000000    -1.290000000
H     3.045000000    -6.840000000    -0.590000000
O     0.090000000    -1.031000000    -6.897000000
H    -0.598000000    -1.693000000    -6.969000000
H     0.288000000    -0.993000000    -5.961000000
O     5.390000000    -4.465000000    -5.437000000
H     4.859000000    -3.931000000    -4.846000000
H     6.290000000    -4.187000000    -5.266000000
