215
-1443.48784
C    -3.734000000    -3.678000000    -0.255000000
H    -4.496000000    -2.917000000    -0.400000000
C    -2.929000000    -3.636000000     0.932000000
C    -2.080000000    -4.687000000     1.124000000
H    -1.536000000    -4.846000000     2.052000000
C    -2.924000000    -2.368000000     1.797000000
O    -4.240000000    -1.742000000     1.697000000
H    -2.184000000    -1.689000000     1.347000000
O    -2.510000000    -2.602000000     3.155000000
C    -1.704000000    -1.681000000     3.762000000
C    -0.367000000    -1.953000000     3.774000000
H    -0.072000000    -2.915000000     3.363000000
C     0.569000000    -1.046000000     4.267000000
O     1.872000000    -1.422000000     4.273000000
C     0.063000000     0.155000000     4.896000000
C     1.004000000     1.195000000     5.491000000
H     0.400000000     1.802000000     6.169000000
C     1.578000000     2.053000000     4.406000000
C     0.866000000     3.169000000     3.907000000
H    -0.090000000     3.460000000     4.335000000
H     1.816000000     0.711000000     6.038000000
C    -1.307000000     0.354000000     4.885000000
H    -1.758000000     1.252000000     5.299000000
C    -2.205000000    -0.488000000     4.316000000
C    -3.686000000    -0.166000000     4.223000000
H    -3.934000000     0.584000000     4.976000000
H    -4.402000000    -0.988000000     4.284000000
C    -3.993000000     0.458000000     2.880000000
C    -3.976000000     1.817000000     2.656000000
H    -3.745000000     2.495000000     3.474000000
C    -4.366000000    -0.348000000     1.749000000
C    -4.707000000     0.255000000     0.542000000
H    -4.879000000    -0.323000000    -0.362000000
C    -4.463000000     1.537000000     0.301000000
O    -4.705000000     2.001000000    -0.897000000
C    -3.515000000     2.170000000    -1.722000000
C    -3.722000000     1.722000000    -3.139000000
C    -2.764000000     2.075000000    -4.136000000
H    -1.896000000     2.697000000    -3.933000000
C    -4.726000000     0.860000000    -3.425000000
H    -5.422000000     0.516000000    -2.665000000
O    -3.001000000     3.530000000    -1.656000000
H    -2.628000000     1.681000000    -1.293000000
C    -4.161000000     2.384000000     1.363000000
C    -3.910000000     3.821000000     1.148000000
H    -3.957000000     4.335000000     2.111000000
H    -4.613000000     4.251000000     0.432000000
C    -2.485000000     4.019000000     0.668000000
C    -1.573000000     4.361000000     1.655000000
H    -1.827000000     4.282000000     2.709000000
C    -2.155000000     4.052000000    -0.697000000
C    -0.853000000     4.360000000    -1.040000000
H    -0.611000000     4.273000000    -2.096000000
C     0.113000000     4.547000000    -0.070000000
O     1.455000000     4.512000000    -0.497000000
C     2.309000000     3.448000000     0.033000000
C     3.056000000     2.843000000    -1.117000000
C     2.347000000     2.191000000    -2.126000000
H     1.261000000     2.169000000    -2.181000000
C     4.465000000     2.690000000    -1.113000000
H     4.995000000     2.963000000    -0.204000000
O     3.062000000     4.095000000     1.052000000
H     1.724000000     2.629000000     0.476000000
C    -0.260000000     4.695000000     1.272000000
C     0.694000000     5.092000000     2.366000000
H     0.130000000     5.506000000     3.205000000
H     1.383000000     5.902000000     2.119000000
C     1.490000000     3.926000000     2.887000000
C     2.729000000     3.540000000     2.279000000
C     3.337000000     2.393000000     2.680000000
H     4.274000000     2.081000000     2.225000000
C     2.788000000     1.683000000     3.809000000
O     3.282000000     0.450000000     4.081000000
C     2.688000000    -0.685000000     3.384000000
H     2.084000000    -0.234000000     2.583000000
C     3.618000000    -1.577000000     2.663000000
C     3.090000000    -2.673000000     2.007000000
H     2.040000000    -2.940000000     2.093000000
C     4.923000000    -1.185000000     2.329000000
H     5.335000000    -0.233000000     2.654000000
C     5.764000000    -1.903000000     1.503000000
O     7.146000000    -1.478000000     1.283000000
C     5.198000000    -3.048000000     0.907000000
H     5.836000000    -3.672000000     0.286000000
C     3.896000000    -3.422000000     1.161000000
O     3.402000000    -4.577000000     0.550000000
C     2.352000000    -5.455000000     1.008000000
C     1.096000000    -5.642000000     0.376000000
H     0.766000000    -5.007000000    -0.442000000
C     2.699000000    -6.267000000     2.125000000
H     3.690000000    -6.090000000     2.534000000
C     1.796000000    -7.182000000     2.647000000
H     2.063000000    -7.840000000     3.470000000
C     0.579000000    -7.339000000     2.017000000
H    -0.103000000    -8.105000000     2.380000000
C     0.208000000    -6.603000000     0.938000000
O    -1.116000000    -6.771000000     0.424000000
C    -1.988000000    -5.701000000     0.211000000
C    -2.693000000    -5.654000000    -0.958000000
H    -2.528000000    -6.429000000    -1.702000000
C    -3.639000000    -4.684000000    -1.220000000
O    -4.343000000    -4.646000000    -2.444000000
C    -5.237000000    -3.664000000    -2.808000000
C    -4.936000000    -2.706000000    -3.744000000
H    -3.908000000    -2.599000000    -4.080000000
C    -6.556000000    -3.701000000    -2.256000000
H    -6.743000000    -4.503000000    -1.547000000
C    -7.490000000    -2.780000000    -2.629000000
H    -8.456000000    -2.757000000    -2.131000000
C    -7.222000000    -1.857000000    -3.602000000
H    -7.877000000    -1.036000000    -3.883000000
C    -5.911000000    -1.754000000    -4.069000000
O    -5.592000000    -0.791000000    -5.016000000
C    -4.781000000     0.253000000    -4.730000000
C    -3.899000000     0.619000000    -5.719000000
H    -3.934000000     0.238000000    -6.736000000
C    -2.882000000     1.546000000    -5.450000000
O    -1.941000000     1.793000000    -6.445000000
C    -0.554000000     2.004000000    -6.206000000
C     0.222000000     1.173000000    -5.338000000
H    -0.200000000     0.256000000    -4.934000000
C     0.033000000     3.160000000    -6.769000000
H    -0.506000000     3.764000000    -7.494000000
C     1.373000000     3.391000000    -6.638000000
H     1.822000000     4.270000000    -7.092000000
C     2.093000000     2.621000000    -5.772000000
H     3.116000000     2.930000000    -5.572000000
C     1.463000000     1.554000000    -5.082000000
O     2.149000000     0.864000000    -4.149000000
C     2.948000000     1.532000000    -3.138000000
C     4.331000000     1.525000000    -3.218000000
H     4.855000000     1.032000000    -4.033000000
C     5.126000000     2.064000000    -2.150000000
O     6.500000000     1.891000000    -2.216000000
C     7.101000000     1.440000000    -1.106000000
C     8.259000000     2.052000000    -0.680000000
H     8.641000000     2.870000000    -1.285000000
C     9.067000000     1.566000000     0.325000000
H     9.960000000     2.091000000     0.652000000
C     8.665000000     0.344000000     0.942000000
H     9.295000000    -0.100000000     1.709000000
C     7.443000000    -0.292000000     0.584000000
C     6.649000000     0.279000000    -0.424000000
H     5.707000000    -0.116000000    -0.798000000
C     1.278000000    -1.099000000    -1.579000000
H     2.360000000    -1.203000000    -1.566000000
C     0.718000000    -0.440000000    -0.474000000
H     1.371000000     0.147000000     0.168000000
C    -0.684000000    -0.395000000    -0.435000000
H    -1.128000000     0.211000000     0.382000000
C    -1.445000000    -1.092000000    -1.398000000
H    -2.528000000    -1.136000000    -1.314000000
C    -0.863000000    -1.779000000    -2.463000000
H    -1.433000000    -2.228000000    -3.272000000
C     0.530000000    -1.695000000    -2.617000000
C     1.256000000    -2.378000000    -3.810000000
O     0.594000000    -2.577000000    -4.799000000
O     2.463000000    -2.647000000    -3.725000000
O     0.737000000    -0.780000000    -8.180000000
H     1.275000000    -1.548000000    -8.374000000
H     1.200000000    -0.053000000    -8.596000000
O    -3.512000000    -6.866000000    -4.060000000
H    -3.453000000    -5.978000000    -3.710000000
H    -3.000000000    -7.398000000    -3.451000000
O     7.142000000    -4.442000000    -2.092000000
H     6.257000000    -4.080000000    -2.037000000
H     7.066000000    -5.169000000    -2.710000000
O     0.378000000    -6.901000000    -2.389000000
H    -0.176000000    -7.682000000    -2.386000000
H    -0.098000000    -6.272000000    -2.932000000
O     0.296000000    -5.874000000    -6.863000000
H     1.119000000    -6.360000000    -6.814000000
H    -0.194000000    -6.305000000    -7.564000000
O     3.608000000    -2.258000000    -9.460000000
H     2.949000000    -2.543000000    -8.828000000
H     3.879000000    -1.394000000    -9.150000000
O     3.602000000    -4.512000000    -5.130000000
H     2.887000000    -4.453000000    -5.763000000
H     3.310000000    -3.982000000    -4.389000000
O    -1.008000000    -2.186000000    -6.838000000
H    -0.549000000    -1.400000000    -7.137000000
H    -0.541000000    -2.449000000    -6.046000000
O     3.275000000    -6.658000000    -1.542000000
H     2.414000000    -6.767000000    -1.946000000
H     3.121000000    -6.070000000    -0.803000000
O     5.743000000    -3.998000000    -7.149000000
H     4.927000000    -4.029000000    -6.650000000
H     6.416000000    -3.805000000    -6.496000000
O     4.223000000    -0.037000000    -7.977000000
H     5.017000000    -0.046000000    -8.512000000
H     4.490000000     0.386000000    -7.160000000
O    -0.544000000    -5.267000000    -4.434000000
H    -0.290000000    -5.598000000    -5.296000000
H    -0.262000000    -4.353000000    -4.435000000
O    -3.140000000    -3.959000000    -7.438000000
H    -2.465000000    -3.281000000    -7.425000000
H    -3.942000000    -3.504000000    -7.180000000
O     5.125000000    -6.398000000    -3.430000000
H     4.654000000    -5.897000000    -4.096000000
H     4.663000000    -6.207000000    -2.614000000
O     1.932000000    -3.170000000    -7.649000000
H     1.352000000    -3.020000000    -6.902000000
H     1.632000000    -4.000000000    -8.021000000
O    -0.340000000    -4.013000000    -9.479000000
H    -1.060000000    -3.636000000    -8.975000000
H    -0.480000000    -4.959000000    -9.427000000
O     4.622000000    -3.217000000    -2.087000000
H     4.068000000    -3.596000000    -1.404000000
H     4.013000000    -2.746000000    -2.655000000
O    -0.735000000    -1.461000000   -10.150000000
H    -0.302000000    -1.166000000    -9.349000000
H    -0.418000000    -2.355000000   -10.279000000
O     1.880000000     1.698000000    -9.340000000
H     2.708000000     1.501000000    -9.777000000
H     2.091000000     1.681000000    -8.407000000
