215
-1459.33930
C    -3.629000000    -3.873000000     0.076000000
H    -4.316000000    -3.035000000    -0.005000000
C    -2.727000000    -3.940000000     1.095000000
C    -1.718000000    -4.904000000     1.039000000
H    -0.859000000    -4.813000000     1.700000000
C    -2.659000000    -2.802000000     2.109000000
O    -3.998000000    -2.235000000     2.465000000
H    -2.030000000    -2.010000000     1.677000000
O    -1.992000000    -3.103000000     3.359000000
C    -1.125000000    -2.174000000     3.964000000
C     0.225000000    -2.316000000     3.656000000
H     0.565000000    -3.198000000     3.118000000
C     1.231000000    -1.436000000     4.124000000
O     2.542000000    -1.669000000     3.700000000
C     0.800000000    -0.299000000     4.756000000
C     1.808000000     0.839000000     5.217000000
H     1.335000000     1.440000000     5.995000000
C     2.185000000     1.812000000     4.071000000
C     1.568000000     3.085000000     3.924000000
H     0.798000000     3.328000000     4.652000000
H     2.694000000     0.428000000     5.706000000
C    -0.535000000    -0.132000000     5.046000000
H    -0.833000000     0.819000000     5.480000000
C    -1.496000000    -1.037000000     4.637000000
C    -2.971000000    -0.657000000     4.786000000
H    -3.026000000     0.118000000     5.553000000
H    -3.479000000    -1.564000000     5.119000000
C    -3.418000000    -0.133000000     3.490000000
C    -3.265000000     1.214000000     3.369000000
H    -2.897000000     1.794000000     4.211000000
C    -3.903000000    -0.829000000     2.397000000
C    -4.326000000    -0.164000000     1.290000000
H    -4.674000000    -0.753000000     0.445000000
C    -4.240000000     1.216000000     1.195000000
O    -4.703000000     1.754000000     0.025000000
C    -3.715000000     2.112000000    -0.857000000
C    -4.064000000     1.677000000    -2.278000000
C    -3.222000000     1.896000000    -3.347000000
H    -2.373000000     2.566000000    -3.233000000
C    -5.154000000     0.787000000    -2.491000000
H    -5.829000000     0.499000000    -1.689000000
O    -3.502000000     3.558000000    -0.813000000
H    -2.820000000     1.541000000    -0.571000000
C    -3.666000000     1.922000000     2.249000000
C    -3.622000000     3.450000000     2.101000000
H    -3.690000000     3.890000000     3.098000000
H    -4.511000000     3.875000000     1.630000000
C    -2.377000000     3.899000000     1.296000000
C    -1.217000000     4.122000000     2.024000000
H    -1.301000000     4.063000000     3.106000000
C    -2.346000000     3.999000000    -0.097000000
C    -1.120000000     4.364000000    -0.745000000
H    -1.062000000     4.168000000    -1.812000000
C    -0.022000000     4.629000000     0.036000000
O     1.205000000     4.727000000    -0.663000000
C     2.139000000     3.745000000    -0.364000000
C     2.877000000     3.334000000    -1.605000000
C     2.121000000     3.091000000    -2.731000000
H     1.063000000     3.333000000    -2.665000000
C     4.247000000     3.070000000    -1.722000000
H     4.941000000     3.184000000    -0.893000000
O     3.012000000     4.142000000     0.720000000
H     1.523000000     2.851000000    -0.183000000
C    -0.039000000     4.574000000     1.459000000
C     1.020000000     5.076000000     2.403000000
H     0.705000000     5.460000000     3.375000000
H     1.688000000     5.770000000     1.887000000
C     1.839000000     3.851000000     2.739000000
C     2.831000000     3.481000000     1.890000000
C     3.522000000     2.311000000     2.113000000
H     4.255000000     2.016000000     1.367000000
C     3.172000000     1.455000000     3.118000000
O     3.761000000     0.264000000     3.107000000
C     2.998000000    -0.826000000     2.562000000
H     2.051000000    -0.570000000     2.064000000
C     3.856000000    -1.631000000     1.609000000
C     3.326000000    -2.738000000     1.037000000
H     2.457000000    -3.213000000     1.486000000
C     5.073000000    -1.165000000     1.132000000
H     5.502000000    -0.260000000     1.555000000
C     5.711000000    -1.757000000     0.038000000
O     6.959000000    -1.338000000    -0.262000000
C     5.157000000    -2.908000000    -0.545000000
H     5.726000000    -3.447000000    -1.298000000
C     3.946000000    -3.376000000    -0.029000000
O     3.400000000    -4.543000000    -0.582000000
C     2.649000000    -5.449000000     0.102000000
C     1.351000000    -5.688000000    -0.320000000
H     0.966000000    -5.039000000    -1.103000000
C     3.118000000    -5.960000000     1.267000000
H     4.164000000    -5.749000000     1.474000000
C     2.408000000    -6.902000000     1.986000000
H     2.733000000    -7.284000000     2.951000000
C     1.072000000    -7.177000000     1.557000000
H     0.380000000    -7.886000000     2.005000000
C     0.554000000    -6.551000000     0.395000000
O    -0.702000000    -6.816000000    -0.072000000
C    -1.712000000    -5.883000000     0.054000000
C    -2.668000000    -5.819000000    -0.970000000
H    -2.632000000    -6.581000000    -1.744000000
C    -3.647000000    -4.839000000    -0.936000000
O    -4.593000000    -4.738000000    -1.946000000
C    -5.564000000    -3.874000000    -2.065000000
C    -5.517000000    -2.813000000    -2.933000000
H    -4.691000000    -2.692000000    -3.630000000
C    -6.645000000    -4.019000000    -1.162000000
H    -6.602000000    -4.773000000    -0.380000000
C    -7.614000000    -3.011000000    -1.121000000
H    -8.410000000    -3.048000000    -0.382000000
C    -7.557000000    -1.920000000    -1.985000000
H    -8.332000000    -1.161000000    -2.067000000
C    -6.558000000    -1.870000000    -2.914000000
O    -6.523000000    -0.743000000    -3.629000000
C    -5.414000000     0.102000000    -3.625000000
C    -4.573000000     0.390000000    -4.726000000
H    -4.831000000    -0.066000000    -5.679000000
C    -3.480000000     1.294000000    -4.582000000
O    -2.650000000     1.430000000    -5.657000000
C    -1.613000000     2.314000000    -5.549000000
C    -0.364000000     1.818000000    -5.345000000
H    -0.380000000     0.752000000    -5.132000000
C    -1.865000000     3.645000000    -5.666000000
H    -2.861000000     4.082000000    -5.656000000
C    -0.759000000     4.475000000    -5.717000000
H    -0.956000000     5.528000000    -5.905000000
C     0.542000000     4.055000000    -5.464000000
H     1.422000000     4.691000000    -5.401000000
C     0.732000000     2.729000000    -5.272000000
O     1.921000000     2.122000000    -5.005000000
C     2.688000000     2.455000000    -3.919000000
C     4.038000000     2.204000000    -3.998000000
H     4.471000000     1.860000000    -4.934000000
C     4.817000000     2.603000000    -2.910000000
O     6.170000000     2.567000000    -2.983000000
C     6.941000000     1.832000000    -2.106000000
C     8.251000000     2.260000000    -1.858000000
H     8.568000000     3.135000000    -2.421000000
C     9.097000000     1.564000000    -1.007000000
H    10.128000000     1.866000000    -0.840000000
C     8.646000000     0.272000000    -0.508000000
H     9.341000000    -0.299000000     0.102000000
C     7.303000000    -0.113000000    -0.688000000
C     6.440000000     0.669000000    -1.494000000
H     5.415000000     0.351000000    -1.667000000
C     1.432000000    -0.329000000    -1.916000000
H     2.382000000    -0.374000000    -2.443000000
C     1.317000000     0.341000000    -0.695000000
H     2.276000000     0.782000000    -0.437000000
C     0.201000000     0.289000000     0.101000000
H     0.319000000     0.700000000     1.129000000
C    -0.924000000    -0.244000000    -0.380000000
H    -1.872000000    -0.177000000     0.147000000
C    -0.934000000    -0.775000000    -1.662000000
H    -1.863000000    -1.115000000    -2.114000000
C     0.257000000    -0.926000000    -2.359000000
C     0.307000000    -1.743000000    -3.672000000
O    -0.684000000    -2.374000000    -3.940000000
O     1.238000000    -1.568000000    -4.436000000
O    -0.490000000    -2.527000000    -9.347000000
H    -0.507000000    -2.390000000    -8.400000000
H    -0.561000000    -1.647000000    -9.717000000
O    -3.210000000    -0.935000000    -7.929000000
H    -3.077000000    -0.273000000    -7.252000000
H    -2.452000000    -0.843000000    -8.507000000
O     1.890000000    -4.140000000    -9.165000000
H     1.513000000    -3.917000000   -10.016000000
H     1.655000000    -3.405000000    -8.599000000
O     1.102000000    -3.948000000    -5.869000000
H     0.398000000    -4.205000000    -5.273000000
H     1.206000000    -3.008000000    -5.725000000
O    -2.705000000    -2.922000000    -5.394000000
H    -2.565000000    -2.279000000    -6.088000000
H    -1.983000000    -2.775000000    -4.782000000
O     0.559000000    -6.702000000    -3.259000000
H     0.481000000    -7.369000000    -2.577000000
H    -0.308000000    -6.300000000    -3.302000000
O     5.352000000    -0.316000000    -7.051000000
H     5.526000000     0.623000000    -7.112000000
H     5.509000000    -0.529000000    -6.131000000
O     4.574000000    -3.012000000    -8.306000000
H     4.190000000    -3.479000000    -7.564000000
H     4.711000000    -2.121000000    -7.984000000
O     3.970000000    -4.585000000    -5.962000000
H     3.066000000    -4.508000000    -6.269000000
H     4.025000000    -3.974000000    -5.227000000
O    -1.642000000    -5.088000000    -3.708000000
H    -2.362000000    -4.850000000    -4.292000000
H    -1.492000000    -4.304000000    -3.180000000
O    -5.167000000    -2.857000000    -6.844000000
H    -4.416000000    -3.165000000    -6.337000000
H    -4.878000000    -2.025000000    -7.220000000
O     5.874000000    -1.157000000    -4.423000000
H     5.158000000    -1.758000000    -4.216000000
H     6.663000000    -1.617000000    -4.136000000
O     3.298000000    -5.784000000    -3.107000000
H     2.449000000    -6.187000000    -3.289000000
H     3.539000000    -6.115000000    -2.242000000
O    -0.410000000    -1.434000000    -6.653000000
H     0.172000000    -0.784000000    -7.047000000
H    -0.189000000    -1.421000000    -5.722000000
O    -0.925000000     0.306000000    -9.204000000
H    -0.085000000     0.535000000    -8.806000000
H    -1.052000000     0.963000000    -9.889000000
O     3.570000000    -2.776000000    -3.825000000
H     2.799000000    -2.218000000    -3.933000000
H     3.213000000    -3.647000000    -3.652000000
O     2.435000000    -6.981000000    -5.614000000
H     2.262000000    -7.510000000    -4.835000000
H     3.158000000    -6.408000000    -5.359000000
O     2.427000000    -0.559000000    -6.618000000
H     3.373000000    -0.418000000    -6.582000000
H     2.165000000    -0.664000000    -5.704000000
O     1.948000000     0.821000000    -8.850000000
H     2.799000000     0.656000000    -9.256000000
H     2.050000000     0.516000000    -7.948000000
