215
-1431.76545
C    -2.901000000    -4.188000000     1.410000000
H    -3.853000000    -3.663000000     1.380000000
C    -1.847000000    -3.782000000     2.205000000
C    -0.629000000    -4.510000000     2.200000000
H     0.266000000    -4.180000000     2.721000000
C    -1.928000000    -2.428000000     2.934000000
O    -3.268000000    -1.992000000     3.074000000
H    -1.483000000    -1.627000000     2.325000000
O    -1.272000000    -2.366000000     4.199000000
C    -0.392000000    -1.372000000     4.451000000
C     0.967000000    -1.592000000     4.288000000
H     1.316000000    -2.598000000     4.071000000
C     1.831000000    -0.525000000     4.391000000
O     3.114000000    -0.701000000     3.953000000
C     1.296000000     0.806000000     4.610000000
C     2.288000000     1.994000000     4.778000000
H     1.710000000     2.629000000     5.452000000
C     2.540000000     2.702000000     3.377000000
C     1.733000000     3.852000000     3.048000000
H     1.011000000     4.252000000     3.756000000
H     3.226000000     1.762000000     5.286000000
C    -0.076000000     1.026000000     4.810000000
H    -0.509000000     1.994000000     5.051000000
C    -0.948000000    -0.103000000     4.728000000
C    -2.422000000     0.149000000     4.949000000
H    -2.524000000     1.018000000     5.603000000
H    -2.876000000    -0.599000000     5.602000000
C    -3.193000000     0.411000000     3.624000000
C    -3.481000000     1.758000000     3.304000000
H    -3.259000000     2.584000000     3.975000000
C    -3.570000000    -0.645000000     2.873000000
C    -4.036000000    -0.320000000     1.628000000
H    -4.147000000    -1.108000000     0.889000000
C    -4.214000000     0.986000000     1.226000000
O    -4.615000000     1.179000000    -0.022000000
C    -3.641000000     1.561000000    -1.008000000
C    -4.020000000     0.786000000    -2.276000000
C    -3.671000000     1.331000000    -3.483000000
H    -3.279000000     2.345000000    -3.469000000
C    -4.361000000    -0.562000000    -2.205000000
H    -4.422000000    -0.999000000    -1.211000000
O    -3.808000000     2.984000000    -1.206000000
H    -2.600000000     1.316000000    -0.751000000
C    -3.940000000     2.087000000     2.062000000
C    -4.207000000     3.548000000     1.643000000
H    -4.249000000     4.293000000     2.441000000
H    -5.158000000     3.487000000     1.110000000
C    -3.003000000     4.040000000     0.807000000
C    -1.840000000     4.577000000     1.404000000
H    -1.954000000     4.928000000     2.426000000
C    -2.905000000     3.667000000    -0.583000000
C    -1.756000000     4.038000000    -1.337000000
H    -1.740000000     3.775000000    -2.392000000
C    -0.678000000     4.587000000    -0.685000000
O     0.426000000     4.673000000    -1.425000000
C     1.329000000     3.597000000    -1.374000000
C     1.760000000     3.062000000    -2.734000000
C     1.088000000     3.343000000    -3.893000000
H     0.147000000     3.887000000    -3.887000000
C     2.930000000     2.346000000    -2.853000000
H     3.483000000     2.129000000    -1.942000000
O     2.466000000     4.060000000    -0.615000000
H     0.977000000     2.717000000    -0.816000000
C    -0.618000000     4.722000000     0.695000000
C     0.564000000     5.403000000     1.320000000
H     0.247000000     6.073000000     2.122000000
H     0.968000000     6.100000000     0.584000000
C     1.676000000     4.378000000     1.740000000
C     2.516000000     3.715000000     0.765000000
C     3.364000000     2.738000000     1.142000000
H     4.018000000     2.240000000     0.430000000
C     3.289000000     2.131000000     2.382000000
O     4.007000000     1.029000000     2.670000000
C     3.415000000    -0.304000000     2.649000000
H     2.475000000    -0.327000000     2.079000000
C     4.259000000    -1.336000000     1.904000000
C     4.293000000    -2.677000000     2.309000000
H     3.559000000    -3.066000000     3.010000000
C     5.078000000    -0.919000000     0.841000000
H     4.979000000     0.149000000     0.660000000
C     5.840000000    -1.856000000     0.076000000
O     6.748000000    -1.398000000    -0.874000000
C     5.829000000    -3.161000000     0.458000000
H     6.457000000    -3.820000000    -0.137000000
C     5.036000000    -3.594000000     1.460000000
O     4.905000000    -4.954000000     1.551000000
C     3.895000000    -5.602000000     2.200000000
C     2.693000000    -5.944000000     1.505000000
H     2.640000000    -5.784000000     0.431000000
C     4.075000000    -5.952000000     3.523000000
H     4.951000000    -5.697000000     4.114000000
C     2.959000000    -6.478000000     4.229000000
H     3.070000000    -6.785000000     5.266000000
C     1.724000000    -6.678000000     3.610000000
H     0.899000000    -6.972000000     4.255000000
C     1.667000000    -6.456000000     2.207000000
O     0.476000000    -6.637000000     1.613000000
C    -0.551000000    -5.739000000     1.552000000
C    -1.672000000    -6.221000000     0.886000000
H    -1.562000000    -7.190000000     0.406000000
C    -2.772000000    -5.381000000     0.722000000
O    -3.790000000    -5.859000000    -0.078000000
C    -4.745000000    -5.045000000    -0.696000000
C    -4.235000000    -4.391000000    -1.821000000
H    -3.281000000    -4.731000000    -2.215000000
C    -6.038000000    -4.821000000    -0.213000000
H    -6.435000000    -5.391000000     0.623000000
C    -6.899000000    -3.956000000    -0.902000000
H    -7.933000000    -3.913000000    -0.568000000
C    -6.403000000    -3.239000000    -1.958000000
H    -6.999000000    -2.515000000    -2.508000000
C    -5.094000000    -3.348000000    -2.350000000
O    -4.653000000    -2.638000000    -3.399000000
C    -4.382000000    -1.303000000    -3.391000000
C    -4.130000000    -0.728000000    -4.576000000
H    -4.107000000    -1.326000000    -5.484000000
C    -3.677000000     0.616000000    -4.666000000
O    -3.505000000     1.122000000    -5.951000000
C    -2.652000000     2.183000000    -6.181000000
C    -1.260000000     2.239000000    -6.072000000
H    -0.768000000     1.343000000    -5.701000000
C    -3.255000000     3.387000000    -6.620000000
H    -4.342000000     3.414000000    -6.629000000
C    -2.526000000     4.586000000    -6.916000000
H    -2.981000000     5.510000000    -7.263000000
C    -1.130000000     4.559000000    -6.854000000
H    -0.606000000     5.471000000    -7.130000000
C    -0.493000000     3.363000000    -6.452000000
O     0.876000000     3.315000000    -6.266000000
C     1.511000000     2.944000000    -5.131000000
C     2.714000000     2.253000000    -5.221000000
H     3.181000000     1.963000000    -6.160000000
C     3.383000000     1.869000000    -4.097000000
O     4.616000000     1.288000000    -4.282000000
C     5.607000000     1.102000000    -3.288000000
C     6.503000000     2.178000000    -3.039000000
H     6.580000000     3.052000000    -3.680000000
C     7.464000000     2.031000000    -2.056000000
H     8.235000000     2.797000000    -2.079000000
C     7.596000000     0.798000000    -1.435000000
H     8.479000000     0.580000000    -0.840000000
C     6.604000000    -0.211000000    -1.535000000
C     5.568000000     0.013000000    -2.457000000
H     4.841000000    -0.764000000    -2.679000000
C     1.955000000    -2.461000000    -1.715000000
H     2.954000000    -2.405000000    -2.141000000
C     1.576000000    -1.808000000    -0.616000000
H     2.351000000    -1.221000000    -0.128000000
C     0.314000000    -1.705000000    -0.121000000
H     0.085000000    -1.098000000     0.617000000
C    -0.657000000    -2.508000000    -0.677000000
H    -1.670000000    -2.569000000    -0.288000000
C    -0.361000000    -3.280000000    -1.839000000
H    -1.160000000    -3.900000000    -2.237000000
C     0.961000000    -3.226000000    -2.391000000
C     1.298000000    -3.942000000    -3.690000000
O     0.658000000    -4.943000000    -3.980000000
O     2.429000000    -3.817000000    -4.132000000
O    -1.468000000    -3.246000000    -8.591000000
H    -0.733000000    -3.536000000    -9.131000000
H    -1.060000000    -2.855000000    -7.819000000
O     1.447000000    -7.333000000    -7.793000000
H     1.748000000    -6.425000000    -7.800000000
H     1.541000000    -7.610000000    -6.882000000
O     0.858000000    -7.429000000    -4.797000000
H     1.662000000    -7.821000000    -4.457000000
H     0.933000000    -6.500000000    -4.579000000
O    -0.958000000    -1.752000000    -6.330000000
H    -0.618000000    -1.207000000    -7.040000000
H    -0.496000000    -1.445000000    -5.550000000
O     2.131000000    -4.225000000    -7.366000000
H     2.960000000    -3.751000000    -7.440000000
H     1.919000000    -4.191000000    -6.433000000
O    -1.787000000    -4.241000000    -5.115000000
H    -0.996000000    -4.422000000    -4.608000000
H    -1.708000000    -3.320000000    -5.361000000
O     0.960000000    -4.120000000    -9.715000000
H     1.467000000    -4.147000000    -8.904000000
H     1.282000000    -4.864000000   -10.224000000
O     2.900000000    -8.299000000    -0.893000000
H     3.769000000    -7.907000000    -0.807000000
H     2.307000000    -7.552000000    -0.971000000
O     1.003000000    -6.527000000    -1.628000000
H     0.114000000    -6.461000000    -1.278000000
H     1.044000000    -5.851000000    -2.305000000
O     6.113000000    -2.744000000    -6.183000000
H     7.040000000    -2.570000000    -6.019000000
H     5.799000000    -3.149000000    -5.374000000
O    -1.390000000    -6.807000000    -3.313000000
H    -0.553000000    -7.198000000    -3.564000000
H    -1.257000000    -5.865000000    -3.425000000
O    -3.794000000    -7.647000000    -4.072000000
H    -2.922000000    -7.479000000    -3.715000000
H    -3.676000000    -7.609000000    -5.021000000
O     5.501000000    -3.532000000    -3.651000000
H     6.014000000    -3.904000000    -2.934000000
H     5.011000000    -4.275000000    -4.006000000
O     3.267000000    -8.292000000    -3.844000000
H     3.849000000    -8.987000000    -4.153000000
H     3.077000000    -8.526000000    -2.936000000
O    -2.206000000    -5.561000000    -7.384000000
H    -1.947000000    -5.381000000    -6.481000000
H    -2.038000000    -4.742000000    -7.850000000
O     5.182000000    -6.365000000    -7.217000000
H     5.727000000    -7.121000000    -6.999000000
H     4.705000000    -6.174000000    -6.409000000
O     1.030000000    -0.655000000    -4.875000000
H     1.401000000    -0.052000000    -4.231000000
H     1.750000000    -0.831000000    -5.481000000
O     4.295000000    -5.773000000    -4.380000000
H     4.011000000    -6.660000000    -4.159000000
H     3.553000000    -5.217000000    -4.140000000
O     3.501000000    -1.653000000    -5.282000000
H     4.412000000    -1.521000000    -5.020000000
H     3.201000000    -2.386000000    -4.746000000
