215
-1450.48643
C    -3.351000000    -3.812000000     2.285000000
H    -4.321000000    -3.327000000     2.346000000
C    -2.125000000    -3.262000000     2.763000000
C    -1.006000000    -3.986000000     2.565000000
H    -0.071000000    -3.623000000     2.985000000
C    -2.013000000    -1.836000000     3.229000000
O    -3.259000000    -1.290000000     3.688000000
H    -1.632000000    -1.263000000     2.371000000
O    -1.153000000    -1.691000000     4.405000000
C    -0.261000000    -0.696000000     4.502000000
C     1.123000000    -0.958000000     4.287000000
H     1.435000000    -1.993000000     4.171000000
C     2.013000000     0.107000000     4.157000000
O     3.320000000    -0.170000000     3.794000000
C     1.608000000     1.431000000     4.396000000
C     2.579000000     2.586000000     4.196000000
H     2.181000000     3.421000000     4.777000000
C     2.628000000     3.036000000     2.747000000
C     1.811000000     4.068000000     2.333000000
H     1.124000000     4.585000000     2.998000000
H     3.538000000     2.247000000     4.593000000
C     0.248000000     1.687000000     4.624000000
H    -0.176000000     2.683000000     4.724000000
C    -0.666000000     0.661000000     4.731000000
C    -2.118000000     1.063000000     5.107000000
H    -2.061000000     2.040000000     5.593000000
H    -2.630000000     0.477000000     5.872000000
C    -2.939000000     1.109000000     3.781000000
C    -3.055000000     2.294000000     3.059000000
H    -2.571000000     3.210000000     3.386000000
C    -3.529000000    -0.020000000     3.197000000
C    -4.181000000    -0.016000000     1.959000000
H    -4.441000000    -1.008000000     1.597000000
C    -4.161000000     1.159000000     1.200000000
O    -4.585000000     1.078000000    -0.109000000
C    -3.661000000     1.275000000    -1.127000000
C    -3.942000000     0.350000000    -2.249000000
C    -3.614000000     0.643000000    -3.618000000
H    -3.348000000     1.673000000    -3.843000000
C    -4.288000000    -0.963000000    -2.004000000
H    -4.499000000    -1.287000000    -0.988000000
O    -3.648000000     2.677000000    -1.570000000
H    -2.691000000     0.904000000    -0.764000000
C    -3.686000000     2.352000000     1.803000000
C    -3.835000000     3.658000000     1.065000000
H    -3.850000000     4.414000000     1.853000000
H    -4.823000000     3.788000000     0.618000000
C    -2.701000000     3.943000000     0.173000000
C    -1.567000000     4.731000000     0.708000000
H    -1.512000000     4.979000000     1.765000000
C    -2.654000000     3.528000000    -1.133000000
C    -1.713000000     3.950000000    -2.027000000
H    -1.776000000     3.536000000    -3.030000000
C    -0.501000000     4.520000000    -1.493000000
O     0.599000000     4.529000000    -2.276000000
C     1.539000000     3.414000000    -1.981000000
C     2.023000000     2.699000000    -3.233000000
C     1.236000000     2.562000000    -4.411000000
H     0.185000000     2.838000000    -4.388000000
C     3.347000000     2.212000000    -3.306000000
H     4.019000000     2.312000000    -2.457000000
O     2.632000000     4.093000000    -1.346000000
H     1.091000000     2.743000000    -1.233000000
C    -0.414000000     4.831000000    -0.112000000
C     0.784000000     5.453000000     0.513000000
H     0.512000000     6.053000000     1.384000000
H     1.266000000     6.131000000    -0.194000000
C     1.802000000     4.420000000     0.959000000
C     2.687000000     3.824000000     0.053000000
C     3.559000000     2.838000000     0.519000000
H     4.244000000     2.327000000    -0.153000000
C     3.485000000     2.433000000     1.852000000
O     4.202000000     1.309000000     2.193000000
C     3.559000000     0.040000000     2.315000000
H     2.609000000     0.032000000     1.760000000
C     4.358000000    -1.140000000     1.735000000
C     4.140000000    -2.454000000     2.143000000
H     3.323000000    -2.532000000     2.855000000
C     5.278000000    -0.887000000     0.731000000
H     5.529000000     0.093000000     0.332000000
C     5.857000000    -1.967000000     0.060000000
O     6.804000000    -1.777000000    -0.905000000
C     5.722000000    -3.237000000     0.497000000
H     6.280000000    -4.039000000     0.021000000
C     4.767000000    -3.570000000     1.484000000
O     4.624000000    -4.826000000     1.943000000
C     3.530000000    -5.200000000     2.746000000
C     2.350000000    -5.599000000     2.152000000
H     2.284000000    -5.447000000     1.078000000
C     3.617000000    -5.002000000     4.116000000
H     4.589000000    -4.703000000     4.500000000
C     2.440000000    -5.321000000     4.840000000
H     2.386000000    -5.136000000     5.909000000
C     1.233000000    -5.751000000     4.227000000
H     0.389000000    -5.956000000     4.881000000
C     1.213000000    -5.878000000     2.848000000
O    -0.023000000    -6.196000000     2.334000000
C    -1.060000000    -5.340000000     2.245000000
C    -2.246000000    -5.882000000     1.804000000
H    -2.320000000    -6.880000000     1.379000000
C    -3.420000000    -5.093000000     1.809000000
O    -4.654000000    -5.612000000     1.361000000
C    -5.445000000    -4.849000000     0.444000000
C    -4.811000000    -4.204000000    -0.655000000
H    -3.784000000    -4.393000000    -0.960000000
C    -6.791000000    -4.716000000     0.693000000
H    -7.233000000    -5.326000000     1.476000000
C    -7.551000000    -3.929000000    -0.201000000
H    -8.624000000    -3.987000000    -0.037000000
C    -6.909000000    -3.178000000    -1.220000000
H    -7.514000000    -2.487000000    -1.802000000
C    -5.553000000    -3.459000000    -1.492000000
O    -4.998000000    -3.120000000    -2.709000000
C    -4.496000000    -1.872000000    -3.012000000
C    -4.318000000    -1.553000000    -4.327000000
H    -4.644000000    -2.277000000    -5.069000000
C    -3.798000000    -0.299000000    -4.609000000
O    -3.575000000     0.059000000    -5.904000000
C    -2.667000000     1.043000000    -6.239000000
C    -1.340000000     0.781000000    -6.475000000
H    -0.971000000    -0.236000000    -6.369000000
C    -3.158000000     2.317000000    -6.463000000
H    -4.222000000     2.536000000    -6.515000000
C    -2.296000000     3.401000000    -6.604000000
H    -2.754000000     4.370000000    -6.787000000
C    -0.910000000     3.178000000    -6.690000000
H    -0.250000000     4.036000000    -6.790000000
C    -0.463000000     1.888000000    -6.642000000
O     0.860000000     1.567000000    -6.637000000
C     1.675000000     1.886000000    -5.561000000
C     2.992000000     1.498000000    -5.566000000
H     3.433000000     1.101000000    -6.477000000
C     3.798000000     1.545000000    -4.440000000
O     5.056000000     0.968000000    -4.517000000
C     5.906000000     0.805000000    -3.422000000
C     6.881000000     1.761000000    -3.176000000
H     7.074000000     2.645000000    -3.779000000
C     7.879000000     1.468000000    -2.196000000
H     8.649000000     2.229000000    -2.096000000
C     7.773000000     0.332000000    -1.395000000
H     8.497000000     0.166000000    -0.601000000
C     6.811000000    -0.601000000    -1.638000000
C     5.820000000    -0.384000000    -2.655000000
H     5.092000000    -1.127000000    -2.971000000
C     1.678000000    -2.329000000    -0.774000000
H     2.698000000    -2.701000000    -0.815000000
C     1.452000000    -0.948000000    -0.661000000
H     2.215000000    -0.174000000    -0.686000000
C     0.136000000    -0.540000000    -0.596000000
H    -0.048000000     0.543000000    -0.337000000
C    -0.933000000    -1.411000000    -0.389000000
H    -1.898000000    -0.993000000    -0.114000000
C    -0.691000000    -2.715000000    -0.598000000
H    -1.540000000    -3.391000000    -0.647000000
C     0.600000000    -3.215000000    -0.834000000
C     0.759000000    -4.628000000    -1.305000000
O    -0.207000000    -5.331000000    -1.516000000
O     1.872000000    -4.989000000    -1.691000000
O     1.155000000   -10.280000000    -3.144000000
H     0.877000000   -10.076000000    -4.037000000
H     1.061000000    -9.454000000    -2.670000000
O    -0.775000000    -9.271000000     1.705000000
H    -0.435000000    -9.068000000     0.833000000
H    -1.019000000    -8.421000000     2.071000000
O    -2.382000000    -6.556000000    -2.151000000
H    -1.527000000    -6.152000000    -2.006000000
H    -2.261000000    -7.471000000    -1.896000000
O    -1.884000000    -9.270000000    -1.733000000
H    -2.712000000    -9.682000000    -1.486000000
H    -1.425000000    -9.940000000    -2.240000000
O    -0.346000000    -5.278000000    -4.607000000
H     0.236000000    -4.744000000    -4.067000000
H    -0.849000000    -5.796000000    -3.978000000
O    -0.466000000    -9.512000000    -5.448000000
H    -1.155000000    -9.595000000    -6.108000000
H    -0.620000000    -8.656000000    -5.048000000
O     0.881000000    -7.576000000    -3.017000000
H     0.853000000    -6.668000000    -2.714000000
H     1.620000000    -7.603000000    -3.624000000
O     4.010000000    -6.379000000    -1.993000000
H     3.293000000    -5.797000000    -1.743000000
H     4.116000000    -6.238000000    -2.934000000
O     3.401000000    -7.736000000     0.282000000
H     2.520000000    -7.841000000    -0.077000000
H     3.898000000    -7.318000000    -0.421000000
O     3.056000000    -8.327000000    -4.611000000
H     3.877000000    -7.851000000    -4.485000000
H     2.771000000    -8.084000000    -5.492000000
O    -4.379000000    -6.488000000    -4.076000000
H    -5.155000000    -6.377000000    -3.527000000
H    -3.647000000    -6.494000000    -3.459000000
O     0.663000000    -8.085000000    -0.520000000
H     0.450000000    -7.229000000    -0.150000000
H     0.486000000    -7.992000000    -1.456000000
O     3.716000000    -3.395000000    -3.158000000
H     3.285000000    -3.088000000    -3.956000000
H     3.031000000    -3.863000000    -2.681000000
O    -0.969000000    -2.625000000    -5.833000000
H    -0.652000000    -2.279000000    -4.998000000
H    -1.157000000    -3.546000000    -5.654000000
O     6.340000000    -3.502000000    -3.816000000
H     5.500000000    -3.329000000    -3.392000000
H     6.108000000    -3.800000000    -4.696000000
O     2.589000000    -2.220000000    -5.664000000
H     2.359000000    -2.867000000    -6.331000000
H     3.463000000    -1.920000000    -5.913000000
O     5.848000000    -8.720000000    -2.164000000
H     5.362000000    -7.941000000    -2.435000000
H     6.375000000    -8.951000000    -2.928000000
O     0.380000000    -1.811000000    -3.673000000
H     0.564000000    -1.964000000    -2.746000000
H     1.230000000    -1.585000000    -4.052000000
O    -0.171000000    -5.663000000    -7.159000000
H     0.575000000    -6.263000000    -7.154000000
H    -0.544000000    -5.737000000    -6.281000000
