215
-1458.81703
C    -2.638000000    -3.952000000     1.950000000
H    -3.596000000    -3.454000000     1.822000000
C    -1.609000000    -3.436000000     2.732000000
C    -0.497000000    -4.212000000     2.864000000
H     0.361000000    -3.838000000     3.416000000
C    -1.749000000    -2.013000000     3.325000000
O    -3.104000000    -1.532000000     3.557000000
H    -1.321000000    -1.337000000     2.570000000
O    -0.907000000    -1.770000000     4.481000000
C    -0.221000000    -0.594000000     4.618000000
C     1.126000000    -0.661000000     4.436000000
H     1.622000000    -1.628000000     4.416000000
C     1.856000000     0.443000000     4.173000000
O     3.169000000     0.343000000     3.839000000
C     1.293000000     1.742000000     4.209000000
C     2.130000000     3.000000000     4.190000000
H     1.767000000     3.702000000     4.944000000
C     2.296000000     3.428000000     2.723000000
C     1.366000000     4.434000000     2.229000000
H     0.673000000     4.956000000     2.885000000
H     3.099000000     2.712000000     4.604000000
C    -0.074000000     1.834000000     4.479000000
H    -0.438000000     2.840000000     4.670000000
C    -0.858000000     0.648000000     4.619000000
C    -2.251000000     0.797000000     4.995000000
H    -2.472000000     1.659000000     5.627000000
H    -2.657000000    -0.088000000     5.489000000
C    -3.079000000     0.893000000     3.731000000
C    -3.367000000     2.125000000     3.120000000
H    -3.093000000     3.071000000     3.579000000
C    -3.423000000    -0.302000000     3.091000000
C    -4.131000000    -0.259000000     1.868000000
H    -4.463000000    -1.128000000     1.305000000
C    -4.359000000     0.944000000     1.250000000
O    -4.894000000     0.965000000    -0.066000000
C    -3.981000000     1.154000000    -1.175000000
C    -4.204000000     0.226000000    -2.279000000
C    -3.739000000     0.402000000    -3.587000000
H    -3.190000000     1.304000000    -3.845000000
C    -4.827000000    -0.952000000    -2.040000000
H    -5.224000000    -1.229000000    -1.067000000
O    -3.941000000     2.561000000    -1.657000000
H    -2.965000000     0.964000000    -0.797000000
C    -3.954000000     2.150000000     1.878000000
C    -4.066000000     3.480000000     1.140000000
H    -4.101000000     4.279000000     1.883000000
H    -5.020000000     3.555000000     0.614000000
C    -2.957000000     3.808000000     0.167000000
C    -1.858000000     4.561000000     0.580000000
H    -1.844000000     4.956000000     1.592000000
C    -2.963000000     3.380000000    -1.153000000
C    -1.861000000     3.646000000    -2.031000000
H    -1.784000000     3.099000000    -2.967000000
C    -0.762000000     4.350000000    -1.574000000
O     0.336000000     4.540000000    -2.420000000
C     1.336000000     3.566000000    -2.088000000
C     1.936000000     2.810000000    -3.324000000
C     1.111000000     2.366000000    -4.330000000
H     0.075000000     2.696000000    -4.334000000
C     3.307000000     2.574000000    -3.456000000
H     3.999000000     2.860000000    -2.668000000
O     2.316000000     4.259000000    -1.293000000
H     0.840000000     2.847000000    -1.418000000
C    -0.794000000     4.898000000    -0.297000000
C     0.453000000     5.711000000     0.223000000
H     0.044000000     6.365000000     0.996000000
H     0.888000000     6.345000000    -0.552000000
C     1.393000000     4.675000000     0.856000000
C     2.256000000     3.984000000     0.015000000
C     3.207000000     3.180000000     0.541000000
H     3.946000000     2.782000000    -0.150000000
C     3.252000000     2.861000000     1.904000000
O     4.027000000     1.802000000     2.243000000
C     3.447000000     0.478000000     2.441000000
H     2.504000000     0.524000000     1.876000000
C     4.326000000    -0.597000000     1.875000000
C     4.608000000    -1.720000000     2.655000000
H     4.308000000    -1.866000000     3.689000000
C     4.793000000    -0.534000000     0.579000000
H     4.543000000     0.317000000    -0.049000000
C     5.341000000    -1.677000000     0.005000000
O     5.688000000    -1.694000000    -1.384000000
C     5.516000000    -2.826000000     0.746000000
H     5.884000000    -3.709000000     0.231000000
C     5.163000000    -2.863000000     2.083000000
O     5.208000000    -4.111000000     2.738000000
C     4.126000000    -4.782000000     3.261000000
C     3.080000000    -5.066000000     2.474000000
H     3.167000000    -4.798000000     1.425000000
C     4.035000000    -5.161000000     4.580000000
H     4.894000000    -4.928000000     5.204000000
C     2.930000000    -5.754000000     5.112000000
H     2.861000000    -5.885000000     6.189000000
C     1.824000000    -6.064000000     4.320000000
H     0.905000000    -6.438000000     4.765000000
C     1.954000000    -5.751000000     2.944000000
O     0.870000000    -6.115000000     2.130000000
C    -0.316000000    -5.396000000     2.146000000
C    -1.380000000    -5.979000000     1.553000000
H    -1.334000000    -6.977000000     1.124000000
C    -2.544000000    -5.256000000     1.423000000
O    -3.551000000    -5.814000000     0.584000000
C    -4.689000000    -5.041000000     0.216000000
C    -4.643000000    -4.343000000    -0.965000000
H    -3.764000000    -4.422000000    -1.600000000
C    -5.841000000    -5.006000000     0.991000000
H    -5.971000000    -5.644000000     1.861000000
C    -6.931000000    -4.250000000     0.576000000
H    -7.884000000    -4.258000000     1.098000000
C    -6.885000000    -3.532000000    -0.642000000
H    -7.773000000    -3.012000000    -0.993000000
C    -5.741000000    -3.584000000    -1.439000000
O    -5.671000000    -3.090000000    -2.679000000
C    -5.022000000    -1.943000000    -2.971000000
C    -4.528000000    -1.791000000    -4.245000000
H    -4.737000000    -2.554000000    -4.989000000
C    -3.868000000    -0.597000000    -4.541000000
O    -3.333000000    -0.392000000    -5.786000000
C    -2.520000000     0.703000000    -6.120000000
C    -1.111000000     0.571000000    -6.269000000
H    -0.670000000    -0.342000000    -5.875000000
C    -3.114000000     1.922000000    -6.542000000
H    -4.178000000     2.075000000    -6.376000000
C    -2.351000000     2.994000000    -7.079000000
H    -2.902000000     3.877000000    -7.395000000
C    -1.003000000     2.877000000    -7.202000000
H    -0.442000000     3.700000000    -7.636000000
C    -0.368000000     1.707000000    -6.742000000
O     0.982000000     1.642000000    -6.715000000
C     1.694000000     1.826000000    -5.513000000
C     3.003000000     1.532000000    -5.669000000
H     3.308000000     1.107000000    -6.622000000
C     3.869000000     1.883000000    -4.590000000
O     5.227000000     1.803000000    -4.662000000
C     5.941000000     1.132000000    -3.671000000
C     7.157000000     1.723000000    -3.269000000
H     7.442000000     2.708000000    -3.630000000
C     7.886000000     1.155000000    -2.249000000
H     8.787000000     1.615000000    -1.850000000
C     7.335000000     0.059000000    -1.555000000
H     7.821000000    -0.289000000    -0.647000000
C     6.201000000    -0.559000000    -2.082000000
C     5.523000000    -0.078000000    -3.197000000
H     4.606000000    -0.629000000    -3.387000000
C     1.475000000    -2.647000000    -0.351000000
H     2.529000000    -2.819000000    -0.145000000
C     0.913000000    -1.407000000    -0.076000000
H     1.493000000    -0.583000000     0.331000000
C    -0.454000000    -1.165000000    -0.287000000
H    -1.008000000    -0.271000000     0.038000000
C    -1.177000000    -2.261000000    -0.799000000
H    -2.199000000    -2.079000000    -1.121000000
C    -0.636000000    -3.506000000    -1.091000000
H    -1.167000000    -4.293000000    -1.620000000
C     0.707000000    -3.725000000    -0.827000000
C     1.302000000    -5.038000000    -1.099000000
O     0.736000000    -5.987000000    -1.541000000
O     2.483000000    -5.281000000    -0.793000000
O    -0.257000000    -9.778000000     2.291000000
H     0.086000000    -9.441000000     1.463000000
H    -0.404000000    -8.998000000     2.825000000
O    -1.633000000    -7.381000000    -1.958000000
H    -0.862000000    -6.841000000    -1.787000000
H    -1.299000000    -8.122000000    -2.465000000
O    -3.792000000    -8.677000000    -0.490000000
H    -3.094000000    -8.082000000    -0.765000000
H    -4.395000000    -8.125000000     0.007000000
O     4.486000000    -2.674000000    -5.076000000
H     5.437000000    -2.762000000    -5.001000000
H     4.333000000    -2.511000000    -6.007000000
O     0.047000000    -5.374000000    -4.191000000
H     0.606000000    -5.920000000    -4.743000000
H     0.206000000    -5.689000000    -3.301000000
O     2.110000000    -7.991000000    -3.065000000
H     2.015000000    -7.307000000    -2.401000000
H     2.478000000    -7.538000000    -3.824000000
O     4.006000000    -7.454000000    -0.141000000
H     3.495000000    -6.657000000    -0.278000000
H     4.625000000    -7.225000000     0.552000000
O     2.976000000    -9.549000000     1.475000000
H     2.164000000    -9.092000000     1.259000000
H     3.668000000    -8.980000000     1.138000000
O     4.609000000    -9.516000000    -1.886000000
H     5.031000000    -8.984000000    -2.561000000
H     4.317000000    -8.883000000    -1.230000000
O     2.182000000    -6.819000000    -5.646000000
H     2.910000000    -6.542000000    -6.204000000
H     1.508000000    -7.111000000    -6.259000000
O     2.736000000    -9.775000000    -5.020000000
H     2.455000000    -9.493000000    -4.150000000
H     3.609000000    -9.396000000    -5.124000000
O     0.603000000    -8.425000000     0.068000000
H     0.659000000    -7.477000000    -0.054000000
H     0.533000000    -8.776000000    -0.820000000
O     4.704000000    -4.501000000    -2.315000000
H     4.818000000    -3.550000000    -2.316000000
H     3.893000000    -4.645000000    -1.829000000
O     6.392000000    -5.629000000    -4.174000000
H     6.819000000    -4.786000000    -4.325000000
H     5.746000000    -5.451000000    -3.490000000
O    -1.630000000    -3.187000000    -4.600000000
H    -1.246000000    -2.451000000    -4.123000000
H    -0.992000000    -3.894000000    -4.503000000
O     1.761000000    -2.169000000    -6.862000000
H     0.818000000    -2.308000000    -6.942000000
H     1.992000000    -2.567000000    -6.023000000
O     2.286000000    -3.084000000    -3.721000000
H     2.331000000    -4.026000000    -3.560000000
H     3.135000000    -2.865000000    -4.104000000
O    -3.809000000    -6.967000000    -3.563000000
H    -3.044000000    -7.023000000    -2.990000000
H    -3.667000000    -7.648000000    -4.220000000
O     0.165000000    -1.272000000    -3.263000000
H    -0.081000000    -1.608000000    -2.401000000
H     1.027000000    -1.652000000    -3.432000000
