215
-1455.34964
C    -2.364000000    -4.283000000     1.733000000
H    -3.190000000    -3.619000000     1.491000000
C    -1.415000000    -3.916000000     2.690000000
C    -0.358000000    -4.769000000     3.024000000
H     0.363000000    -4.481000000     3.785000000
C    -1.429000000    -2.489000000     3.231000000
O    -2.823000000    -2.006000000     3.354000000
H    -0.967000000    -1.811000000     2.498000000
O    -0.777000000    -2.261000000     4.542000000
C     0.066000000    -1.148000000     4.663000000
C     1.442000000    -1.214000000     4.401000000
H     1.838000000    -2.186000000     4.119000000
C     2.191000000    -0.092000000     4.319000000
O     3.362000000    -0.220000000     3.656000000
C     1.640000000     1.173000000     4.553000000
C     2.417000000     2.487000000     4.468000000
H     2.100000000     3.255000000     5.176000000
C     2.377000000     3.069000000     3.065000000
C     1.455000000     4.107000000     2.715000000
H     0.694000000     4.437000000     3.418000000
H     3.424000000     2.166000000     4.747000000
C     0.275000000     1.282000000     4.861000000
H    -0.132000000     2.248000000     5.147000000
C    -0.535000000     0.118000000     4.892000000
C    -2.016000000     0.223000000     5.183000000
H    -2.216000000     1.123000000     5.768000000
H    -2.449000000    -0.625000000     5.719000000
C    -2.783000000     0.417000000     3.893000000
C    -2.982000000     1.721000000     3.416000000
H    -2.848000000     2.595000000     4.049000000
C    -3.113000000    -0.683000000     3.047000000
C    -3.899000000    -0.535000000     1.896000000
H    -4.251000000    -1.409000000     1.355000000
C    -4.185000000     0.764000000     1.486000000
O    -4.930000000     0.853000000     0.303000000
C    -4.204000000     1.337000000    -0.846000000
C    -4.537000000     0.561000000    -2.079000000
C    -4.387000000     1.141000000    -3.336000000
H    -4.172000000     2.191000000    -3.516000000
C    -4.722000000    -0.817000000    -1.935000000
H    -4.953000000    -1.238000000    -0.960000000
O    -4.321000000     2.788000000    -1.009000000
H    -3.159000000     1.033000000    -0.683000000
C    -3.754000000     1.892000000     2.232000000
C    -4.163000000     3.261000000     1.842000000
H    -4.028000000     3.851000000     2.751000000
H    -5.172000000     3.486000000     1.490000000
C    -3.138000000     3.738000000     0.847000000
C    -2.018000000     4.454000000     1.359000000
H    -1.865000000     4.573000000     2.428000000
C    -3.311000000     3.515000000    -0.506000000
C    -2.293000000     3.955000000    -1.372000000
H    -2.396000000     3.733000000    -2.431000000
C    -1.123000000     4.459000000    -0.859000000
O    -0.078000000     4.756000000    -1.661000000
C     1.021000000     3.757000000    -1.644000000
C     1.452000000     3.240000000    -3.045000000
C     0.589000000     2.490000000    -3.873000000
H    -0.452000000     2.302000000    -3.625000000
C     2.774000000     3.408000000    -3.406000000
H     3.524000000     3.920000000    -2.809000000
O     2.082000000     4.376000000    -0.957000000
H     0.647000000     2.828000000    -1.188000000
C    -0.997000000     4.824000000     0.472000000
C     0.203000000     5.538000000     1.020000000
H    -0.021000000     6.085000000     1.939000000
H     0.539000000     6.165000000     0.192000000
C     1.287000000     4.563000000     1.363000000
C     2.206000000     4.141000000     0.375000000
C     3.163000000     3.157000000     0.765000000
H     3.810000000     2.668000000     0.041000000
C     3.255000000     2.657000000     2.066000000
O     4.080000000     1.533000000     2.280000000
C     3.488000000     0.194000000     2.208000000
H     2.487000000     0.377000000     1.789000000
C     4.312000000    -0.869000000     1.423000000
C     4.389000000    -2.186000000     1.819000000
H     3.881000000    -2.520000000     2.720000000
C     4.828000000    -0.536000000     0.228000000
H     4.656000000     0.482000000    -0.111000000
C     5.458000000    -1.422000000    -0.606000000
O     5.771000000    -1.048000000    -1.957000000
C     5.578000000    -2.744000000    -0.239000000
H     5.917000000    -3.509000000    -0.932000000
C     5.006000000    -3.137000000     1.004000000
O     5.080000000    -4.482000000     1.377000000
C     4.201000000    -5.056000000     2.318000000
C     2.952000000    -5.644000000     1.960000000
H     2.711000000    -5.530000000     0.906000000
C     4.730000000    -5.188000000     3.615000000
H     5.706000000    -4.744000000     3.790000000
C     3.999000000    -5.816000000     4.615000000
H     4.384000000    -5.849000000     5.631000000
C     2.698000000    -6.268000000     4.284000000
H     2.065000000    -6.621000000     5.094000000
C     2.164000000    -6.183000000     2.959000000
O     0.939000000    -6.753000000     2.647000000
C    -0.175000000    -5.953000000     2.363000000
C    -1.107000000    -6.385000000     1.404000000
H    -0.982000000    -7.320000000     0.865000000
C    -2.187000000    -5.479000000     1.092000000
O    -3.032000000    -5.846000000     0.114000000
C    -4.203000000    -5.135000000    -0.200000000
C    -4.200000000    -4.482000000    -1.351000000
H    -3.332000000    -4.454000000    -2.004000000
C    -5.266000000    -5.118000000     0.747000000
H    -5.110000000    -5.710000000     1.646000000
C    -6.375000000    -4.345000000     0.482000000
H    -7.210000000    -4.175000000     1.157000000
C    -6.368000000    -3.712000000    -0.791000000
H    -7.239000000    -3.145000000    -1.107000000
C    -5.281000000    -3.689000000    -1.651000000
O    -5.218000000    -2.952000000    -2.841000000
C    -4.883000000    -1.637000000    -3.020000000
C    -4.895000000    -1.071000000    -4.305000000
H    -5.129000000    -1.663000000    -5.186000000
C    -4.590000000     0.309000000    -4.426000000
O    -4.548000000     0.871000000    -5.672000000
C    -3.443000000     1.634000000    -6.136000000
C    -2.126000000     1.079000000    -6.060000000
H    -2.065000000     0.011000000    -5.871000000
C    -3.639000000     2.906000000    -6.713000000
H    -4.644000000     3.305000000    -6.825000000
C    -2.488000000     3.629000000    -7.199000000
H    -2.527000000     4.503000000    -7.844000000
C    -1.238000000     3.076000000    -6.937000000
H    -0.383000000     3.507000000    -7.451000000
C    -1.020000000     1.832000000    -6.326000000
O     0.261000000     1.331000000    -6.012000000
C     1.061000000     2.030000000    -5.150000000
C     2.403000000     2.156000000    -5.457000000
H     2.842000000     1.617000000    -6.292000000
C     3.209000000     2.823000000    -4.577000000
O     4.615000000     2.708000000    -4.856000000
C     5.513000000     2.122000000    -3.884000000
C     6.912000000     2.480000000    -3.918000000
H     7.246000000     3.253000000    -4.605000000
C     7.888000000     1.686000000    -3.243000000
H     8.949000000     1.891000000    -3.352000000
C     7.486000000     0.554000000    -2.452000000
H     8.220000000    -0.115000000    -2.011000000
C     6.113000000     0.230000000    -2.422000000
C     5.197000000     0.901000000    -3.226000000
H     4.257000000     0.391000000    -3.421000000
C     1.568000000    -1.708000000    -1.335000000
H     2.492000000    -1.607000000    -1.899000000
C     1.038000000    -0.631000000    -0.727000000
H     1.538000000     0.334000000    -0.748000000
C    -0.055000000    -0.706000000     0.056000000
H    -0.441000000     0.188000000     0.557000000
C    -0.799000000    -1.854000000     0.019000000
H    -1.784000000    -1.939000000     0.471000000
C    -0.392000000    -2.948000000    -0.684000000
H    -0.958000000    -3.875000000    -0.640000000
C     0.831000000    -2.858000000    -1.412000000
C     1.342000000    -4.096000000    -2.117000000
O     0.548000000    -4.953000000    -2.425000000
O     2.453000000    -4.085000000    -2.633000000
O    -0.089000000    -7.658000000    -1.672000000
H     0.673000000    -8.080000000    -2.069000000
H     0.147000000    -6.732000000    -1.625000000
O    -2.174000000    -2.820000000    -7.366000000
H    -1.471000000    -2.897000000    -8.012000000
H    -1.744000000    -2.471000000    -6.585000000
O     4.433000000    -8.165000000    -5.087000000
H     4.109000000    -7.357000000    -5.484000000
H     5.380000000    -8.040000000    -5.026000000
O     5.060000000    -1.962000000    -5.903000000
H     4.965000000    -2.504000000    -5.119000000
H     5.770000000    -1.356000000    -5.690000000
O    -1.689000000    -5.885000000    -3.658000000
H    -1.345000000    -6.705000000    -3.303000000
H    -1.114000000    -5.209000000    -3.297000000
O     1.601000000    -6.853000000    -3.954000000
H     1.281000000    -6.174000000    -3.360000000
H     1.121000000    -6.704000000    -4.769000000
O     3.589000000    -6.675000000    -1.637000000
H     3.388000000    -5.756000000    -1.817000000
H     3.290000000    -7.142000000    -2.417000000
O     0.291000000    -6.137000000    -6.230000000
H     0.643000000    -6.254000000    -7.112000000
H    -0.635000000    -6.366000000    -6.310000000
O    -4.280000000    -5.886000000    -4.785000000
H    -4.656000000    -5.012000000    -4.892000000
H    -3.375000000    -5.726000000    -4.518000000
O     2.161000000    -9.489000000    -4.087000000
H     1.878000000    -8.609000000    -4.338000000
H     3.117000000    -9.449000000    -4.112000000
O     4.203000000    -8.548000000     0.090000000
H     4.067000000    -7.771000000    -0.453000000
H     5.083000000    -8.439000000     0.449000000
O     4.880000000    -3.347000000    -3.645000000
H     5.187000000    -2.789000000    -2.930000000
H     4.037000000    -3.685000000    -3.341000000
O     5.473000000    -5.278000000    -5.540000000
H     6.314000000    -5.677000000    -5.312000000
H     5.359000000    -4.578000000    -4.897000000
O    -0.924000000    -2.072000000    -5.121000000
H    -0.881000000    -1.530000000    -4.333000000
H    -0.052000000    -2.460000000    -5.192000000
O     2.662000000    -2.510000000    -7.246000000
H     2.287000000    -2.850000000    -6.434000000
H     3.502000000    -2.134000000    -6.984000000
O     1.332000000    -3.916000000    -5.299000000
H     0.894000000    -4.616000000    -5.784000000
H     1.655000000    -4.341000000    -4.504000000
O    -2.270000000    -9.053000000    -1.483000000
H    -1.517000000    -8.478000000    -1.613000000
H    -2.883000000    -8.806000000    -2.175000000
O     4.040000000    -5.219000000    -7.696000000
H     4.394000000    -5.268000000    -6.808000000
H     3.515000000    -4.419000000    -7.701000000
O    -0.739000000    -0.511000000    -3.074000000
H    -1.117000000     0.258000000    -2.648000000
H    -0.213000000    -0.929000000    -2.392000000
