215
-1446.75797
C    -2.255000000    -4.322000000     1.825000000
H    -3.184000000    -3.808000000     1.590000000
C    -1.444000000    -3.809000000     2.813000000
C    -0.287000000    -4.512000000     3.221000000
H     0.264000000    -4.186000000     4.099000000
C    -1.652000000    -2.367000000     3.346000000
O    -3.002000000    -1.968000000     3.450000000
H    -1.173000000    -1.858000000     2.496000000
O    -0.962000000    -2.118000000     4.531000000
C    -0.203000000    -0.952000000     4.680000000
C     1.141000000    -1.061000000     4.361000000
H     1.536000000    -2.059000000     4.192000000
C     1.887000000     0.096000000     4.182000000
O     3.216000000    -0.117000000     3.805000000
C     1.312000000     1.331000000     4.448000000
C     2.102000000     2.638000000     4.324000000
H     1.674000000     3.414000000     4.961000000
C     2.188000000     3.149000000     2.956000000
C     1.195000000     4.063000000     2.559000000
H     0.413000000     4.358000000     3.255000000
H     3.105000000     2.485000000     4.728000000
C    -0.084000000     1.416000000     4.682000000
H    -0.508000000     2.403000000     4.846000000
C    -0.815000000     0.254000000     4.852000000
C    -2.348000000     0.453000000     5.084000000
H    -2.495000000     1.355000000     5.682000000
H    -2.629000000    -0.409000000     5.693000000
C    -3.114000000     0.425000000     3.772000000
C    -3.496000000     1.634000000     3.216000000
H    -3.374000000     2.524000000     3.827000000
C    -3.330000000    -0.721000000     3.045000000
C    -3.982000000    -0.677000000     1.823000000
H    -4.090000000    -1.579000000     1.226000000
C    -4.380000000     0.551000000     1.277000000
O    -4.793000000     0.541000000    -0.059000000
C    -3.920000000     0.986000000    -1.116000000
C    -3.977000000     0.155000000    -2.396000000
C    -3.973000000     0.800000000    -3.652000000
H    -3.889000000     1.882000000    -3.723000000
C    -4.281000000    -1.212000000    -2.317000000
H    -4.220000000    -1.763000000    -1.382000000
O    -4.130000000     2.389000000    -1.386000000
H    -2.890000000     0.750000000    -0.814000000
C    -4.173000000     1.790000000     1.995000000
C    -4.425000000     3.145000000     1.488000000
H    -4.382000000     3.749000000     2.396000000
H    -5.393000000     3.192000000     0.986000000
C    -3.293000000     3.640000000     0.511000000
C    -2.252000000     4.441000000     1.002000000
H    -2.335000000     4.754000000     2.040000000
C    -3.236000000     3.259000000    -0.812000000
C    -2.160000000     3.612000000    -1.614000000
H    -2.102000000     3.218000000    -2.625000000
C    -1.106000000     4.316000000    -1.098000000
O    -0.077000000     4.577000000    -1.984000000
C     1.078000000     3.765000000    -1.828000000
C     1.629000000     3.317000000    -3.162000000
C     0.692000000     3.110000000    -4.221000000
H    -0.346000000     3.409000000    -4.103000000
C     2.989000000     3.133000000    -3.294000000
H     3.676000000     3.256000000    -2.460000000
O     1.999000000     4.460000000    -1.008000000
H     0.667000000     2.928000000    -1.244000000
C    -1.179000000     4.818000000     0.191000000
C     0.028000000     5.488000000     0.879000000
H    -0.320000000     5.914000000     1.822000000
H     0.304000000     6.290000000     0.190000000
C     1.142000000     4.479000000     1.205000000
C     2.137000000     4.054000000     0.267000000
C     3.087000000     3.106000000     0.728000000
H     3.816000000     2.780000000    -0.009000000
C     3.127000000     2.669000000     2.036000000
O     4.040000000     1.597000000     2.337000000
C     3.461000000     0.245000000     2.388000000
H     2.431000000     0.293000000     2.003000000
C     4.303000000    -0.749000000     1.632000000
C     4.390000000    -2.069000000     2.055000000
H     4.024000000    -2.385000000     3.029000000
C     4.868000000    -0.439000000     0.428000000
H     4.934000000     0.572000000     0.034000000
C     5.449000000    -1.460000000    -0.384000000
O     6.021000000    -1.231000000    -1.581000000
C     5.475000000    -2.781000000     0.037000000
H     5.987000000    -3.562000000    -0.519000000
C     4.915000000    -3.077000000     1.313000000
O     5.200000000    -4.299000000     2.013000000
C     4.394000000    -4.961000000     3.002000000
C     3.070000000    -5.309000000     2.668000000
H     2.618000000    -5.053000000     1.713000000
C     4.944000000    -5.330000000     4.196000000
H     5.985000000    -5.087000000     4.395000000
C     4.085000000    -5.897000000     5.198000000
H     4.421000000    -6.249000000     6.170000000
C     2.829000000    -6.343000000     4.796000000
H     2.143000000    -6.782000000     5.516000000
C     2.323000000    -6.083000000     3.549000000
O     1.027000000    -6.596000000     3.204000000
C    -0.034000000    -5.830000000     2.696000000
C    -0.852000000    -6.313000000     1.686000000
H    -0.822000000    -7.313000000     1.262000000
C    -1.929000000    -5.479000000     1.193000000
O    -2.787000000    -6.037000000     0.260000000
C    -3.834000000    -5.411000000    -0.369000000
C    -3.665000000    -4.787000000    -1.604000000
H    -2.705000000    -4.698000000    -2.105000000
C    -5.116000000    -5.277000000     0.265000000
H    -5.291000000    -5.675000000     1.261000000
C    -6.137000000    -4.543000000    -0.294000000
H    -7.116000000    -4.366000000     0.143000000
C    -5.938000000    -3.920000000    -1.532000000
H    -6.755000000    -3.352000000    -1.969000000
C    -4.760000000    -4.112000000    -2.199000000
O    -4.593000000    -3.416000000    -3.388000000
C    -4.473000000    -1.988000000    -3.436000000
C    -4.464000000    -1.351000000    -4.651000000
H    -4.568000000    -1.993000000    -5.522000000
C    -4.242000000     0.019000000    -4.775000000
O    -4.136000000     0.690000000    -5.988000000
C    -3.275000000     1.683000000    -6.341000000
C    -1.920000000     1.486000000    -6.266000000
H    -1.494000000     0.490000000    -6.179000000
C    -3.814000000     2.963000000    -6.432000000
H    -4.882000000     3.047000000    -6.616000000
C    -2.971000000     4.061000000    -6.513000000
H    -3.334000000     5.062000000    -6.731000000
C    -1.548000000     3.873000000    -6.547000000
H    -0.868000000     4.721000000    -6.591000000
C    -1.054000000     2.555000000    -6.497000000
O     0.330000000     2.485000000    -6.530000000
C     1.168000000     2.674000000    -5.446000000
C     2.485000000     2.356000000    -5.459000000
H     2.789000000     1.904000000    -6.400000000
C     3.474000000     2.571000000    -4.507000000
O     4.734000000     2.132000000    -4.735000000
C     5.508000000     1.649000000    -3.793000000
C     6.696000000     2.327000000    -3.644000000
H     6.933000000     3.201000000    -4.245000000
C     7.602000000     1.876000000    -2.694000000
H     8.562000000     2.366000000    -2.548000000
C     7.331000000     0.703000000    -1.919000000
H     8.068000000     0.336000000    -1.209000000
C     6.164000000    -0.013000000    -2.176000000
C     5.194000000     0.504000000    -3.074000000
H     4.271000000    -0.001000000    -3.347000000
C     1.769000000    -1.642000000    -1.624000000
H     2.712000000    -1.823000000    -2.135000000
C     1.618000000    -0.339000000    -1.208000000
H     2.389000000     0.425000000    -1.148000000
C     0.419000000    -0.012000000    -0.439000000
H     0.306000000     1.074000000     0.006000000
C    -0.595000000    -0.992000000    -0.279000000
H    -1.512000000    -0.748000000     0.250000000
C    -0.406000000    -2.292000000    -0.801000000
H    -1.206000000    -3.025000000    -0.736000000
C     0.797000000    -2.622000000    -1.474000000
C     1.017000000    -4.062000000    -1.960000000
O     0.055000000    -4.832000000    -2.005000000
O     2.102000000    -4.462000000    -2.373000000
O    -1.812000000    -3.740000000    -8.210000000
H    -0.959000000    -3.909000000    -8.610000000
H    -1.613000000    -3.552000000    -7.293000000
O    -0.353000000    -7.156000000    -3.416000000
H     0.494000000    -6.874000000    -3.759000000
H    -0.581000000    -6.493000000    -2.765000000
O    -1.083000000    -2.028000000    -5.862000000
H    -0.215000000    -1.714000000    -6.114000000
H    -1.277000000    -1.567000000    -5.046000000
O     6.490000000    -6.336000000    -2.301000000
H     7.198000000    -5.875000000    -2.752000000
H     6.755000000    -6.340000000    -1.381000000
O     2.148000000    -4.273000000    -6.326000000
H     2.649000000    -3.827000000    -5.643000000
H     1.746000000    -5.018000000    -5.880000000
O    -1.108000000    -4.595000000    -4.787000000
H    -0.664000000    -4.555000000    -3.940000000
H    -1.097000000    -3.693000000    -5.107000000
O     2.569000000    -9.735000000    -1.836000000
H     2.267000000    -9.808000000    -2.742000000
H     2.316000000    -8.852000000    -1.569000000
O     1.739000000    -6.849000000    -0.638000000
H     1.927000000    -6.172000000    -1.288000000
H     0.852000000    -6.653000000    -0.338000000
O     6.749000000    -3.077000000    -4.884000000
H     6.672000000    -2.186000000    -4.544000000
H     6.007000000    -3.545000000    -4.501000000
O     4.707000000    -7.247000000    -4.050000000
H     5.357000000    -6.906000000    -3.436000000
H     4.877000000    -8.189000000    -4.080000000
O    -3.476000000    -5.684000000    -4.970000000
H    -3.550000000    -6.461000000    -4.416000000
H    -2.577000000    -5.383000000    -4.842000000
O     4.472000000    -4.024000000    -3.336000000
H     5.041000000    -4.788000000    -3.249000000
H     3.659000000    -4.279000000    -2.899000000
O     0.087000000    -9.842000000    -3.936000000
H    -0.026000000    -8.894000000    -3.867000000
H     0.034000000   -10.022000000    -4.875000000
O    -0.278000000    -6.550000000    -7.205000000
H    -0.813000000    -6.312000000    -7.962000000
H    -0.507000000    -5.904000000    -6.537000000
O    -0.798000000    -0.683000000    -3.272000000
H    -0.148000000    -0.772000000    -2.575000000
H    -1.637000000    -0.844000000    -2.840000000
O     1.892000000    -6.221000000    -4.277000000
H     2.780000000    -6.579000000    -4.271000000
H     1.871000000    -5.619000000    -3.533000000
O     4.231000000    -8.342000000     0.229000000
H     3.465000000    -7.770000000     0.200000000
H     4.078000000    -8.983000000    -0.465000000
O    -3.210000000    -8.009000000    -3.668000000
H    -2.257000000    -7.934000000    -3.614000000
H    -3.363000000    -8.590000000    -4.413000000
O     1.572000000    -1.455000000    -6.620000000
H     2.378000000    -0.939000000    -6.626000000
H     1.861000000    -2.350000000    -6.443000000
