215
-1436.27834
C    -3.360000000    -3.037000000     2.650000000
H    -4.233000000    -2.394000000     2.572000000
C    -2.260000000    -2.357000000     3.124000000
C    -1.072000000    -3.041000000     3.004000000
H    -0.161000000    -2.500000000     3.248000000
C    -2.197000000    -0.955000000     3.500000000
O    -3.463000000    -0.418000000     3.625000000
H    -1.680000000    -0.526000000     2.629000000
O    -1.456000000    -0.733000000     4.768000000
C    -0.449000000     0.220000000     4.682000000
C     0.876000000    -0.165000000     4.592000000
H     1.141000000    -1.207000000     4.432000000
C     1.900000000     0.727000000     4.282000000
O     3.160000000     0.267000000     4.074000000
C     1.538000000     2.049000000     4.168000000
C     2.543000000     3.192000000     3.827000000
H     2.306000000     4.093000000     4.396000000
C     2.596000000     3.330000000     2.306000000
C     1.913000000     4.356000000     1.587000000
H     1.344000000     5.066000000     2.182000000
H     3.541000000     2.956000000     4.202000000
C     0.240000000     2.442000000     4.491000000
H    -0.062000000     3.475000000     4.340000000
C    -0.779000000     1.563000000     4.603000000
C    -2.152000000     2.144000000     4.744000000
H    -2.153000000     3.179000000     5.092000000
H    -2.729000000     1.569000000     5.471000000
C    -2.949000000     1.934000000     3.452000000
C    -3.054000000     3.061000000     2.615000000
H    -2.629000000     4.003000000     2.951000000
C    -3.621000000     0.786000000     3.031000000
C    -4.274000000     0.736000000     1.806000000
H    -4.801000000    -0.157000000     1.479000000
C    -4.304000000     1.830000000     0.970000000
O    -4.676000000     1.475000000    -0.305000000
C    -3.590000000     1.287000000    -1.186000000
C    -3.792000000     0.217000000    -2.231000000
C    -3.534000000     0.425000000    -3.592000000
H    -3.142000000     1.395000000    -3.888000000
C    -4.295000000    -1.024000000    -1.857000000
H    -4.762000000    -1.137000000    -0.882000000
O    -3.333000000     2.528000000    -1.893000000
H    -2.602000000     1.107000000    -0.736000000
C    -3.671000000     3.025000000     1.353000000
C    -3.536000000     4.230000000     0.461000000
H    -3.503000000     5.146000000     1.054000000
H    -4.397000000     4.410000000    -0.186000000
C    -2.318000000     4.165000000    -0.457000000
C    -1.173000000     4.885000000    -0.166000000
H    -1.174000000     5.428000000     0.776000000
C    -2.344000000     3.376000000    -1.571000000
C    -1.287000000     3.345000000    -2.489000000
H    -1.366000000     2.618000000    -3.293000000
C    -0.178000000     4.072000000    -2.263000000
O     0.857000000     3.713000000    -3.012000000
C     1.651000000     2.697000000    -2.466000000
C     2.113000000     1.790000000    -3.564000000
C     1.437000000     1.697000000    -4.801000000
H     0.596000000     2.333000000    -5.064000000
C     3.244000000     0.965000000    -3.296000000
H     3.712000000     0.776000000    -2.334000000
O     2.793000000     3.298000000    -1.786000000
H     1.062000000     2.082000000    -1.770000000
C    -0.110000000     4.846000000    -1.109000000
C     1.235000000     5.436000000    -0.642000000
H     1.099000000     6.278000000     0.040000000
H     1.800000000     5.892000000    -1.457000000
C     1.993000000     4.383000000     0.198000000
C     2.741000000     3.390000000    -0.436000000
C     3.464000000     2.415000000     0.261000000
H     4.242000000     1.808000000    -0.194000000
C     3.406000000     2.412000000     1.655000000
O     4.129000000     1.531000000     2.413000000
C     3.575000000     0.243000000     2.721000000
H     2.716000000     0.020000000     2.071000000
C     4.479000000    -1.010000000     2.425000000
C     4.209000000    -2.230000000     3.096000000
H     3.448000000    -2.352000000     3.862000000
C     5.331000000    -1.031000000     1.301000000
H     5.539000000    -0.108000000     0.767000000
C     5.912000000    -2.272000000     0.897000000
O     6.698000000    -2.415000000    -0.211000000
C     5.743000000    -3.432000000     1.669000000
H     6.293000000    -4.304000000     1.325000000
C     4.915000000    -3.405000000     2.784000000
O     4.770000000    -4.534000000     3.509000000
C     3.485000000    -4.778000000     3.945000000
C     2.435000000    -4.971000000     3.029000000
H     2.678000000    -4.954000000     1.970000000
C     3.166000000    -4.788000000     5.297000000
H     3.980000000    -4.725000000     6.014000000
C     1.867000000    -4.875000000     5.705000000
H     1.728000000    -4.954000000     6.780000000
C     0.806000000    -4.902000000     4.832000000
H    -0.251000000    -4.837000000     5.077000000
C     1.169000000    -5.025000000     3.462000000
O     0.215000000    -4.985000000     2.497000000
C    -1.047000000    -4.359000000     2.611000000
C    -2.266000000    -5.025000000     2.271000000
H    -2.273000000    -6.106000000     2.156000000
C    -3.438000000    -4.347000000     2.256000000
O    -4.638000000    -4.945000000     1.902000000
C    -5.490000000    -4.416000000     0.974000000
C    -5.029000000    -4.115000000    -0.313000000
H    -3.958000000    -4.031000000    -0.477000000
C    -6.812000000    -4.385000000     1.200000000
H    -7.145000000    -4.802000000     2.147000000
C    -7.727000000    -3.829000000     0.291000000
H    -8.809000000    -3.773000000     0.387000000
C    -7.199000000    -3.375000000    -1.001000000
H    -7.757000000    -2.900000000    -1.804000000
C    -5.884000000    -3.569000000    -1.273000000
O    -5.351000000    -3.170000000    -2.525000000
C    -4.546000000    -2.026000000    -2.809000000
C    -4.255000000    -1.802000000    -4.143000000
H    -4.499000000    -2.574000000    -4.869000000
C    -3.698000000    -0.598000000    -4.510000000
O    -3.525000000    -0.270000000    -5.872000000
C    -2.566000000     0.511000000    -6.454000000
C    -1.191000000     0.285000000    -6.288000000
H    -0.831000000    -0.534000000    -5.670000000
C    -3.003000000     1.535000000    -7.217000000
H    -4.082000000     1.628000000    -7.302000000
C    -2.091000000     2.272000000    -8.043000000
H    -2.417000000     2.919000000    -8.853000000
C    -0.706000000     1.992000000    -7.968000000
H    -0.056000000     2.661000000    -8.527000000
C    -0.272000000     1.032000000    -7.047000000
O     1.035000000     0.591000000    -6.977000000
C     1.812000000     0.761000000    -5.784000000
C     2.966000000     0.033000000    -5.512000000
H     3.311000000    -0.645000000    -6.289000000
C     3.702000000     0.076000000    -4.332000000
O     4.620000000    -0.931000000    -4.199000000
C     5.736000000    -0.782000000    -3.369000000
C     6.517000000     0.401000000    -3.323000000
H     6.543000000     1.131000000    -4.127000000
C     7.411000000     0.636000000    -2.255000000
H     8.180000000     1.401000000    -2.332000000
C     7.556000000    -0.326000000    -1.217000000
H     8.351000000    -0.097000000    -0.512000000
C     6.670000000    -1.441000000    -1.232000000
C     5.858000000    -1.670000000    -2.321000000
H     5.340000000    -2.616000000    -2.459000000
C     1.909000000    -2.477000000    -0.350000000
H     2.981000000    -2.658000000    -0.351000000
C     1.485000000    -1.141000000    -0.182000000
H     2.235000000    -0.361000000    -0.077000000
C     0.112000000    -0.844000000    -0.149000000
H    -0.169000000     0.192000000    -0.063000000
C    -0.884000000    -1.817000000    -0.250000000
H    -1.923000000    -1.497000000    -0.231000000
C    -0.410000000    -3.125000000    -0.488000000
H    -1.124000000    -3.889000000    -0.787000000
C     0.929000000    -3.466000000    -0.445000000
C     1.329000000    -4.970000000    -0.717000000
O     0.487000000    -5.832000000    -0.825000000
O     2.455000000    -5.221000000    -0.860000000
O    -2.190000000    -6.069000000    -1.188000000
H    -1.273000000    -5.908000000    -0.969000000
H    -2.350000000    -6.968000000    -0.901000000
O    -2.413000000    -8.669000000     0.317000000
H    -3.028000000    -9.128000000    -0.256000000
H    -2.005000000    -9.363000000     0.835000000
O     1.675000000    -7.962000000    -2.194000000
H     1.204000000    -7.187000000    -1.887000000
H     2.470000000    -7.986000000    -1.660000000
O     2.566000000    -3.891000000    -6.261000000
H     1.820000000    -4.255000000    -6.737000000
H     2.951000000    -4.642000000    -5.809000000
O     0.639000000   -10.284000000    -0.522000000
H     0.162000000    -9.789000000     0.143000000
H     1.000000000    -9.616000000    -1.105000000
O    -1.392000000    -6.450000000    -5.194000000
H    -1.598000000    -5.810000000    -4.513000000
H    -0.450000000    -6.351000000    -5.338000000
O     1.323000000    -5.988000000    -4.448000000
H     1.766000000    -6.596000000    -3.855000000
H     1.356000000    -5.146000000    -3.996000000
O     3.805000000    -7.975000000    -0.439000000
H     3.793000000    -7.019000000    -0.476000000
H     4.649000000    -8.219000000    -0.818000000
O     2.668000000    -9.141000000     1.675000000
H     1.776000000    -8.795000000     1.648000000
H     3.200000000    -8.465000000     1.254000000
O     3.299000000   -10.788000000    -0.631000000
H     2.445000000   -10.535000000    -0.282000000
H     3.714000000    -9.961000000    -0.874000000
O     0.431000000    -9.792000000    -4.037000000
H     0.775000000    -9.246000000    -3.330000000
H     0.530000000    -9.256000000    -4.824000000
O    -2.988000000    -4.797000000    -3.618000000
H    -2.877000000    -3.870000000    -3.409000000
H    -2.883000000    -5.246000000    -2.779000000
O     0.346000000    -7.908000000     1.137000000
H     0.388000000    -7.196000000     0.499000000
H    -0.585000000    -8.121000000     1.197000000
O     4.738000000    -5.521000000    -2.438000000
H     4.405000000    -5.620000000    -3.330000000
H     3.986000000    -5.209000000    -1.934000000
O     4.358000000    -6.021000000    -5.347000000
H     5.291000000    -5.849000000    -5.473000000
H     4.271000000    -6.967000000    -5.469000000
O    -1.916000000    -3.356000000    -6.286000000
H    -1.575000000    -3.059000000    -5.442000000
H    -1.254000000    -3.966000000    -6.611000000
O     6.315000000    -7.603000000    -3.259000000
H     5.931000000    -6.883000000    -2.758000000
H     7.155000000    -7.261000000    -3.564000000
O     2.353000000    -2.956000000    -3.733000000
H     2.506000000    -2.903000000    -4.676000000
H     3.041000000    -2.414000000    -3.348000000
O    -0.425000000    -3.103000000    -3.484000000
H    -0.633000000    -2.846000000    -2.586000000
H     0.521000000    -2.971000000    -3.557000000
