215
-1464.31610
C    -2.753000000    -2.558000000     3.783000000
H    -3.706000000    -2.108000000     3.518000000
C    -1.605000000    -1.834000000     4.001000000
C    -0.400000000    -2.475000000     4.215000000
H     0.548000000    -1.962000000     4.362000000
C    -1.538000000    -0.284000000     3.787000000
O    -2.863000000     0.295000000     3.736000000
H    -1.062000000    -0.144000000     2.805000000
O    -0.756000000     0.415000000     4.788000000
C     0.004000000     1.479000000     4.325000000
C     1.367000000     1.189000000     4.049000000
H     1.807000000     0.235000000     4.327000000
C     2.224000000     2.109000000     3.565000000
O     3.514000000     1.696000000     3.250000000
C     1.742000000     3.381000000     3.262000000
C     2.693000000     4.277000000     2.411000000
H     2.365000000     5.316000000     2.478000000
C     2.645000000     3.905000000     0.935000000
C     1.715000000     4.546000000     0.128000000
H     1.068000000     5.369000000     0.421000000
H     3.658000000     4.136000000     2.901000000
C     0.368000000     3.624000000     3.377000000
H    -0.035000000     4.551000000     2.977000000
C    -0.480000000     2.706000000     3.947000000
C    -1.937000000     2.962000000     4.179000000
H    -2.210000000     4.010000000     4.317000000
H    -2.232000000     2.454000000     5.099000000
C    -2.766000000     2.527000000     2.977000000
C    -3.185000000     3.424000000     1.993000000
H    -2.818000000     4.441000000     2.111000000
C    -3.139000000     1.201000000     2.777000000
C    -3.691000000     0.731000000     1.591000000
H    -3.724000000    -0.341000000     1.412000000
C    -4.130000000     1.664000000     0.688000000
O    -4.756000000     1.266000000    -0.415000000
C    -3.969000000     0.891000000    -1.538000000
C    -4.348000000    -0.480000000    -2.062000000
C    -4.112000000    -0.758000000    -3.439000000
H    -3.793000000     0.060000000    -4.079000000
C    -4.724000000    -1.476000000    -1.150000000
H    -4.649000000    -1.290000000    -0.082000000
O    -4.069000000     2.005000000    -2.500000000
H    -2.895000000     0.948000000    -1.309000000
C    -3.715000000     3.000000000     0.782000000
C    -3.867000000     4.011000000    -0.401000000
H    -4.031000000     5.041000000    -0.075000000
H    -4.867000000     3.883000000    -0.820000000
C    -2.750000000     3.848000000    -1.448000000
C    -1.613000000     4.673000000    -1.361000000
H    -1.626000000     5.480000000    -0.633000000
C    -2.950000000     2.888000000    -2.497000000
C    -1.837000000     2.613000000    -3.309000000
H    -1.834000000     1.868000000    -4.100000000
C    -0.714000000     3.417000000    -3.226000000
O     0.318000000     3.015000000    -3.999000000
C     1.387000000     2.129000000    -3.439000000
C     1.739000000     1.002000000    -4.374000000
C     0.907000000     0.527000000    -5.368000000
H    -0.048000000     0.999000000    -5.586000000
C     2.847000000     0.231000000    -3.969000000
H     3.349000000     0.413000000    -3.022000000
O     2.524000000     2.961000000    -3.068000000
H     0.962000000     1.577000000    -2.588000000
C    -0.525000000     4.426000000    -2.280000000
C     0.782000000     5.174000000    -2.172000000
H     0.565000000     6.188000000    -1.830000000
H     1.163000000     5.268000000    -3.191000000
C     1.721000000     4.419000000    -1.242000000
C     2.583000000     3.422000000    -1.789000000
C     3.457000000     2.706000000    -1.015000000
H     3.888000000     1.799000000    -1.434000000
C     3.426000000     2.937000000     0.340000000
O     4.333000000     2.127000000     1.058000000
C     3.701000000     1.192000000     1.916000000
H     2.716000000     0.868000000     1.549000000
C     4.630000000    -0.055000000     1.945000000
C     4.613000000    -0.948000000     2.999000000
H     3.970000000    -0.650000000     3.823000000
C     5.483000000    -0.406000000     0.878000000
H     5.671000000     0.283000000     0.058000000
C     6.229000000    -1.578000000     0.788000000
O     6.912000000    -2.081000000    -0.267000000
C     6.171000000    -2.436000000     1.834000000
H     6.822000000    -3.301000000     1.742000000
C     5.288000000    -2.114000000     2.883000000
O     5.225000000    -3.023000000     3.982000000
C     4.094000000    -3.223000000     4.778000000
C     2.856000000    -3.708000000     4.268000000
H     2.746000000    -3.935000000     3.211000000
C     4.210000000    -2.864000000     6.133000000
H     5.130000000    -2.377000000     6.446000000
C     3.268000000    -3.250000000     7.064000000
H     3.364000000    -2.949000000     8.104000000
C     2.041000000    -3.697000000     6.547000000
H     1.229000000    -3.961000000     7.220000000
C     1.864000000    -3.930000000     5.182000000
O     0.707000000    -4.517000000     4.774000000
C    -0.462000000    -3.894000000     4.418000000
C    -1.596000000    -4.657000000     4.268000000
H    -1.565000000    -5.716000000     4.511000000
C    -2.768000000    -3.987000000     3.863000000
O    -3.911000000    -4.652000000     3.678000000
C    -4.902000000    -4.063000000     2.843000000
C    -4.803000000    -4.281000000     1.466000000
H    -3.851000000    -4.601000000     1.049000000
C    -6.007000000    -3.404000000     3.321000000
H    -5.977000000    -3.052000000     4.349000000
C    -7.075000000    -3.068000000     2.463000000
H    -7.829000000    -2.421000000     2.904000000
C    -6.922000000    -3.124000000     1.066000000
H    -7.636000000    -2.733000000     0.346000000
C    -5.714000000    -3.747000000     0.579000000
O    -5.432000000    -3.832000000    -0.805000000
C    -5.044000000    -2.786000000    -1.627000000
C    -4.835000000    -3.056000000    -2.975000000
H    -5.021000000    -4.074000000    -3.308000000
C    -4.397000000    -2.052000000    -3.818000000
O    -4.142000000    -2.436000000    -5.155000000
C    -3.327000000    -1.679000000    -6.009000000
C    -1.979000000    -1.708000000    -5.845000000
H    -1.460000000    -2.252000000    -5.060000000
C    -3.860000000    -1.013000000    -7.084000000
H    -4.946000000    -1.054000000    -7.088000000
C    -3.048000000    -0.296000000    -7.942000000
H    -3.372000000     0.289000000    -8.799000000
C    -1.672000000    -0.356000000    -7.802000000
H    -1.040000000     0.119000000    -8.549000000
C    -1.115000000    -1.015000000    -6.776000000
O     0.223000000    -1.277000000    -6.763000000
C     1.228000000    -0.656000000    -6.072000000
C     2.280000000    -1.430000000    -5.622000000
H     2.439000000    -2.422000000    -6.038000000
C     3.073000000    -0.949000000    -4.619000000
O     4.038000000    -1.849000000    -4.122000000
C     5.200000000    -1.461000000    -3.480000000
C     5.998000000    -0.442000000    -4.037000000
H     5.702000000     0.039000000    -4.966000000
C     7.161000000    -0.091000000    -3.387000000
H     7.705000000     0.765000000    -3.778000000
C     7.481000000    -0.581000000    -2.103000000
H     8.403000000    -0.305000000    -1.598000000
C     6.631000000    -1.555000000    -1.543000000
C     5.487000000    -1.920000000    -2.205000000
H     4.818000000    -2.704000000    -1.858000000
C     1.434000000    -1.816000000    -0.167000000
H     2.284000000    -2.428000000    -0.456000000
C     1.636000000    -0.400000000    -0.370000000
H     2.626000000     0.003000000    -0.566000000
C     0.526000000     0.452000000    -0.270000000
H     0.608000000     1.529000000    -0.397000000
C    -0.626000000    -0.110000000     0.215000000
H    -1.472000000     0.527000000     0.458000000
C    -0.805000000    -1.480000000     0.421000000
H    -1.741000000    -1.891000000     0.792000000
C     0.253000000    -2.396000000     0.167000000
C    -0.061000000    -3.910000000     0.220000000
O    -1.129000000    -4.461000000     0.262000000
O     0.906000000    -4.656000000     0.092000000
O     3.475000000    -8.168000000    -0.394000000
H     3.663000000    -7.230000000    -0.363000000
H     3.598000000    -8.466000000     0.508000000
O    -2.626000000    -6.494000000    -0.084000000
H    -2.048000000    -5.740000000     0.026000000
H    -2.487000000    -7.020000000     0.703000000
O    -0.025000000    -9.509000000     2.506000000
H    -0.045000000    -9.474000000     3.463000000
H     0.777000000    -9.044000000     2.267000000
O     4.704000000    -6.471000000     3.588000000
H     4.353000000    -6.119000000     4.406000000
H     4.112000000    -7.190000000     3.364000000
O    -2.209000000    -7.865000000     2.208000000
H    -1.252000000    -7.853000000     2.232000000
H    -2.468000000    -8.096000000     3.100000000
O     5.997000000    -6.146000000     0.964000000
H     5.610000000    -6.385000000     1.806000000
H     5.256000000    -5.853000000     0.434000000
O     0.736000000    -7.319000000    -4.286000000
H     0.815000000    -6.642000000    -3.614000000
H     1.282000000    -8.038000000    -3.968000000
O     0.802000000    -5.150000000    -2.785000000
H     1.127000000    -5.113000000    -1.885000000
H    -0.097000000    -4.826000000    -2.728000000
O    -1.689000000    -4.109000000    -2.410000000
H    -1.637000000    -4.281000000    -1.470000000
H    -1.887000000    -3.175000000    -2.473000000
O     1.733000000    -7.570000000     3.861000000
H     1.412000000    -7.275000000     3.009000000
H     1.779000000    -6.772000000     4.388000000
O     3.381000000    -5.538000000    -0.336000000
H     2.523000000    -5.212000000    -0.066000000
H     3.472000000    -5.250000000    -1.244000000
O    -0.896000000   -10.021000000    -0.023000000
H    -0.916000000    -9.840000000     0.917000000
H    -1.504000000    -9.386000000    -0.402000000
O    -3.667000000    -7.328000000    -2.396000000
H    -3.101000000    -6.914000000    -3.048000000
H    -3.331000000    -7.019000000    -1.555000000
O     0.777000000    -7.092000000     1.288000000
H     0.352000000    -6.317000000     0.920000000
H     1.514000000    -7.262000000     0.701000000
O     3.538000000    -4.408000000    -3.265000000
H     3.590000000    -3.592000000    -3.762000000
H     2.646000000    -4.721000000    -3.412000000
O    -2.391000000    -6.194000000    -4.304000000
H    -1.470000000    -6.442000000    -4.391000000
H    -2.369000000    -5.338000000    -3.878000000
O     6.005000000    -5.988000000    -2.962000000
H     5.200000000    -5.473000000    -3.007000000
H     6.707000000    -5.337000000    -2.962000000
O    -0.688000000    -1.416000000    -2.736000000
H    -0.597000000    -1.134000000    -1.825000000
H    -0.096000000    -0.844000000    -3.224000000
O     2.461000000    -9.092000000    -2.909000000
H     2.790000000    -8.774000000    -2.069000000
H     2.407000000   -10.042000000    -2.802000000
