215
-1451.23374
C    -2.783000000    -3.293000000     3.942000000
H    -3.790000000    -3.014000000     3.644000000
C    -1.722000000    -2.553000000     4.349000000
C    -0.447000000    -3.010000000     4.719000000
H     0.385000000    -2.393000000     5.048000000
C    -1.826000000    -1.064000000     4.185000000
O    -3.190000000    -0.543000000     4.133000000
H    -1.468000000    -0.841000000     3.169000000
O    -0.999000000    -0.275000000     5.105000000
C    -0.362000000     0.870000000     4.573000000
C     1.011000000     0.696000000     4.314000000
H     1.559000000    -0.209000000     4.563000000
C     1.681000000     1.755000000     3.737000000
O     3.035000000     1.585000000     3.364000000
C     1.003000000     2.967000000     3.570000000
C     1.784000000     4.162000000     3.072000000
H     1.177000000     5.037000000     3.312000000
C     1.871000000     4.194000000     1.547000000
C     0.917000000     4.837000000     0.738000000
H     0.198000000     5.391000000     1.335000000
H     2.777000000     4.231000000     3.521000000
C    -0.328000000     3.190000000     3.940000000
H    -0.890000000     4.094000000     3.721000000
C    -1.038000000     2.115000000     4.389000000
C    -2.551000000     2.278000000     4.489000000
H    -2.754000000     3.348000000     4.565000000
H    -3.028000000     1.778000000     5.335000000
C    -3.182000000     1.725000000     3.258000000
C    -3.582000000     2.672000000     2.305000000
H    -3.296000000     3.700000000     2.517000000
C    -3.600000000     0.366000000     3.152000000
C    -4.367000000    -0.116000000     2.043000000
H    -4.711000000    -1.139000000     1.911000000
C    -4.589000000     0.840000000     1.001000000
O    -5.032000000     0.323000000    -0.178000000
C    -4.080000000     0.330000000    -1.277000000
C    -3.861000000    -1.027000000    -1.943000000
C    -3.819000000    -1.064000000    -3.340000000
H    -4.149000000    -0.179000000    -3.879000000
C    -3.467000000    -2.197000000    -1.280000000
H    -3.459000000    -2.204000000    -0.193000000
O    -4.275000000     1.439000000    -2.256000000
H    -3.081000000     0.499000000    -0.849000000
C    -4.267000000     2.223000000     1.157000000
C    -4.589000000     3.149000000     0.076000000
H    -4.799000000     4.164000000     0.419000000
H    -5.513000000     2.852000000    -0.424000000
C    -3.476000000     3.317000000    -0.949000000
C    -2.425000000     4.218000000    -0.707000000
H    -2.424000000     4.707000000     0.263000000
C    -3.403000000     2.465000000    -2.068000000
C    -2.397000000     2.575000000    -3.031000000
H    -2.267000000     1.849000000    -3.830000000
C    -1.407000000     3.453000000    -2.759000000
O    -0.348000000     3.382000000    -3.622000000
C     0.953000000     2.778000000    -3.144000000
C     1.579000000     1.876000000    -4.200000000
C     0.802000000     1.222000000    -5.218000000
H    -0.275000000     1.367000000    -5.256000000
C     2.948000000     1.627000000    -4.145000000
H     3.562000000     2.161000000    -3.424000000
O     1.846000000     3.830000000    -2.682000000
H     0.711000000     2.080000000    -2.329000000
C    -1.387000000     4.335000000    -1.684000000
C    -0.254000000     5.393000000    -1.442000000
H    -0.631000000     6.280000000    -0.928000000
H     0.056000000     5.779000000    -2.416000000
C     0.943000000     4.779000000    -0.660000000
C     1.919000000     4.050000000    -1.334000000
C     2.927000000     3.435000000    -0.609000000
H     3.761000000     2.938000000    -1.098000000
C     2.860000000     3.468000000     0.782000000
O     3.832000000     2.742000000     1.441000000
C     3.348000000     1.440000000     1.956000000
H     2.467000000     1.103000000     1.391000000
C     4.211000000     0.255000000     1.633000000
C     4.012000000    -0.960000000     2.371000000
H     3.170000000    -1.133000000     3.037000000
C     5.239000000     0.339000000     0.652000000
H     5.296000000     1.252000000     0.064000000
C     5.984000000    -0.806000000     0.340000000
O     6.800000000    -0.842000000    -0.783000000
C     5.754000000    -1.922000000     1.152000000
H     6.412000000    -2.778000000     1.023000000
C     4.841000000    -2.038000000     2.181000000
O     4.526000000    -3.270000000     2.631000000
C     3.884000000    -3.434000000     3.843000000
C     2.651000000    -4.110000000     3.950000000
H     2.081000000    -4.306000000     3.045000000
C     4.621000000    -3.098000000     4.984000000
H     5.605000000    -2.683000000     4.780000000
C     4.135000000    -3.445000000     6.257000000
H     4.678000000    -3.171000000     7.158000000
C     2.901000000    -4.171000000     6.395000000
H     2.484000000    -4.388000000     7.375000000
C     2.150000000    -4.431000000     5.235000000
O     0.831000000    -4.934000000     5.338000000
C    -0.273000000    -4.404000000     4.716000000
C    -1.362000000    -5.232000000     4.312000000
H    -1.231000000    -6.310000000     4.254000000
C    -2.521000000    -4.674000000     3.801000000
O    -3.555000000    -5.520000000     3.404000000
C    -4.105000000    -5.323000000     2.141000000
C    -3.170000000    -5.063000000     1.163000000
H    -2.113000000    -5.067000000     1.416000000
C    -5.473000000    -5.355000000     1.922000000
H    -6.195000000    -5.459000000     2.728000000
C    -5.865000000    -5.180000000     0.587000000
H    -6.901000000    -5.261000000     0.269000000
C    -4.949000000    -5.069000000    -0.383000000
H    -5.272000000    -5.121000000    -1.420000000
C    -3.639000000    -4.872000000    -0.117000000
O    -2.900000000    -4.487000000    -1.173000000
C    -3.110000000    -3.363000000    -1.906000000
C    -3.054000000    -3.352000000    -3.308000000
H    -2.600000000    -4.231000000    -3.758000000
C    -3.365000000    -2.179000000    -4.003000000
O    -3.302000000    -2.163000000    -5.381000000
C    -2.666000000    -1.225000000    -6.143000000
C    -1.283000000    -1.267000000    -6.270000000
H    -0.691000000    -1.965000000    -5.685000000
C    -3.404000000    -0.298000000    -6.832000000
H    -4.431000000    -0.252000000    -6.478000000
C    -2.842000000     0.604000000    -7.680000000
H    -3.528000000     1.293000000    -8.166000000
C    -1.465000000     0.601000000    -7.854000000
H    -0.970000000     1.343000000    -8.474000000
C    -0.731000000    -0.253000000    -7.086000000
O     0.631000000    -0.113000000    -7.172000000
C     1.398000000     0.367000000    -6.165000000
C     2.760000000     0.105000000    -6.067000000
H     3.261000000    -0.558000000    -6.767000000
C     3.498000000     0.754000000    -5.057000000
O     4.815000000     0.324000000    -4.903000000
C     5.670000000     0.666000000    -3.881000000
C     6.441000000     1.865000000    -3.882000000
H     6.270000000     2.597000000    -4.667000000
C     7.175000000     2.176000000    -2.792000000
H     7.760000000     3.091000000    -2.761000000
C     7.292000000     1.246000000    -1.729000000
H     7.994000000     1.443000000    -0.923000000
C     6.630000000     0.043000000    -1.778000000
C     5.740000000    -0.181000000    -2.820000000
H     5.090000000    -1.052000000    -2.842000000
C     1.585000000    -0.593000000    -0.706000000
H     2.450000000    -0.233000000    -1.258000000
C     0.657000000     0.372000000    -0.173000000
H     0.967000000     1.402000000    -0.332000000
C    -0.434000000    -0.045000000     0.421000000
H    -1.154000000     0.675000000     0.870000000
C    -0.675000000    -1.418000000     0.662000000
H    -1.615000000    -1.751000000     1.094000000
C     0.259000000    -2.381000000     0.222000000
H    -0.039000000    -3.426000000     0.262000000
C     1.443000000    -1.982000000    -0.475000000
C     2.319000000    -3.021000000    -1.131000000
O     2.050000000    -4.204000000    -0.852000000
O     3.135000000    -2.667000000    -1.899000000
O     4.531000000    -8.205000000    -1.669000000
H     3.585000000    -8.151000000    -1.537000000
H     4.648000000    -8.944000000    -2.267000000
O     0.954000000    -7.362000000     3.215000000
H     1.310000000    -6.959000000     2.423000000
H     0.024000000    -7.137000000     3.200000000
O     1.461000000    -6.918000000    -6.054000000
H     1.276000000    -6.568000000    -5.182000000
H     1.260000000    -6.195000000    -6.648000000
O     1.095000000    -6.019000000    -2.624000000
H     1.995000000    -6.107000000    -2.939000000
H     1.159000000    -5.423000000    -1.878000000
O    -0.061000000    -4.626000000    -4.704000000
H     0.081000000    -5.224000000    -3.971000000
H     0.368000000    -3.813000000    -4.436000000
O     7.036000000    -5.112000000     2.075000000
H     7.135000000    -4.902000000     1.146000000
H     6.096000000    -5.256000000     2.189000000
O     0.704000000    -5.673000000     0.887000000
H     1.175000000    -5.139000000     0.248000000
H     0.625000000    -6.531000000     0.470000000
O     7.828000000    -4.165000000    -0.396000000
H     7.566000000    -3.596000000    -1.119000000
H     7.504000000    -5.031000000    -0.643000000
O     0.659000000    -8.187000000     0.006000000
H     0.577000000    -9.140000000    -0.034000000
H     0.087000000    -7.868000000    -0.691000000
O     4.613000000    -4.615000000     0.042000000
H     3.733000000    -4.896000000    -0.208000000
H     4.545000000    -3.664000000     0.127000000
O     1.476000000    -2.384000000    -4.027000000
H     2.183000000    -2.451000000    -3.385000000
H     0.862000000    -1.758000000    -3.642000000
O     4.196000000    -5.564000000    -6.228000000
H     3.934000000    -5.736000000    -7.132000000
H     3.943000000    -4.653000000    -6.074000000
O     7.276000000    -3.590000000    -4.032000000
H     6.521000000    -3.965000000    -3.578000000
H     7.746000000    -3.105000000    -3.354000000
O    -1.368000000    -7.098000000    -1.739000000
H    -2.137000000    -6.996000000    -2.299000000
H    -0.808000000    -6.355000000    -1.964000000
O     4.952000000    -4.313000000    -2.647000000
H     5.269000000    -4.559000000    -1.778000000
H     4.248000000    -3.687000000    -2.476000000
O     2.188000000    -3.244000000    -6.865000000
H     1.503000000    -3.122000000    -7.522000000
H     1.790000000    -2.949000000    -6.046000000
O     4.703000000    -6.586000000     1.762000000
H     4.323000000    -7.461000000     1.682000000
H     4.704000000    -6.243000000     0.868000000
O    -0.502000000    -0.782000000    -2.695000000
H    -1.398000000    -1.074000000    -2.529000000
H    -0.090000000    -0.767000000    -1.831000000
O     3.615000000    -6.302000000    -3.712000000
H     4.372000000    -5.863000000    -3.326000000
H     3.694000000    -6.134000000    -4.651000000
