215
-1460.66680
C    -2.925000000    -2.405000000     4.142000000
H    -3.917000000    -2.050000000     3.876000000
C    -1.811000000    -1.529000000     4.203000000
C    -0.591000000    -2.058000000     4.557000000
H     0.258000000    -1.395000000     4.702000000
C    -1.931000000    -0.070000000     3.865000000
O    -3.291000000     0.319000000     3.923000000
H    -1.651000000     0.117000000     2.818000000
O    -1.144000000     0.782000000     4.701000000
C    -0.377000000     1.699000000     4.062000000
C     0.950000000     1.423000000     3.791000000
H     1.377000000     0.425000000     3.844000000
C     1.803000000     2.342000000     3.338000000
O     3.123000000     2.076000000     3.195000000
C     1.334000000     3.598000000     3.038000000
C     2.169000000     4.604000000     2.309000000
H     1.688000000     5.578000000     2.420000000
C     2.224000000     4.277000000     0.855000000
C     1.256000000     4.737000000     0.006000000
H     0.464000000     5.397000000     0.350000000
H     3.140000000     4.812000000     2.764000000
C     0.041000000     3.903000000     3.350000000
H    -0.468000000     4.842000000     3.149000000
C    -0.899000000     2.967000000     3.790000000
C    -2.415000000     3.173000000     3.912000000
H    -2.683000000     4.231000000     3.954000000
H    -2.855000000     2.770000000     4.826000000
C    -3.291000000     2.465000000     2.821000000
C    -3.641000000     3.168000000     1.654000000
H    -3.387000000     4.224000000     1.611000000
C    -3.633000000     1.119000000     2.876000000
C    -4.169000000     0.514000000     1.782000000
H    -4.494000000    -0.520000000     1.857000000
C    -4.463000000     1.223000000     0.601000000
O    -4.943000000     0.481000000    -0.451000000
C    -3.955000000     0.155000000    -1.500000000
C    -4.061000000    -1.346000000    -1.968000000
C    -3.721000000    -1.681000000    -3.282000000
H    -3.436000000    -0.811000000    -3.869000000
C    -4.287000000    -2.344000000    -1.022000000
H    -4.443000000    -2.050000000     0.013000000
O    -4.115000000     1.079000000    -2.596000000
H    -2.941000000     0.372000000    -1.133000000
C    -4.210000000     2.576000000     0.525000000
C    -4.500000000     3.296000000    -0.766000000
H    -4.720000000     4.334000000    -0.505000000
H    -5.357000000     2.800000000    -1.225000000
C    -3.306000000     3.178000000    -1.669000000
C    -2.202000000     4.016000000    -1.499000000
H    -2.084000000     4.703000000    -0.665000000
C    -3.287000000     2.156000000    -2.608000000
C    -2.189000000     2.043000000    -3.463000000
H    -2.168000000     1.133000000    -4.057000000
C    -1.093000000     2.897000000    -3.307000000
O     0.101000000     2.699000000    -3.942000000
C     1.186000000     2.027000000    -3.299000000
C     1.702000000     0.905000000    -4.121000000
C     0.904000000     0.170000000    -5.010000000
H    -0.144000000     0.444000000    -5.102000000
C     3.068000000     0.582000000    -4.034000000
H     3.642000000     1.208000000    -3.356000000
O     2.211000000     3.033000000    -3.053000000
H     0.833000000     1.582000000    -2.357000000
C    -1.123000000     3.946000000    -2.380000000
C     0.084000000     4.872000000    -2.218000000
H    -0.170000000     5.901000000    -1.956000000
H     0.471000000     4.960000000    -3.235000000
C     1.176000000     4.296000000    -1.302000000
C     2.194000000     3.495000000    -1.755000000
C     3.285000000     3.141000000    -0.942000000
H     4.129000000     2.539000000    -1.271000000
C     3.235000000     3.421000000     0.411000000
O     4.083000000     2.773000000     1.213000000
C     3.545000000     1.628000000     1.885000000
H     2.646000000     1.350000000     1.316000000
C     4.491000000     0.483000000     1.883000000
C     4.328000000    -0.538000000     2.752000000
H     3.652000000    -0.417000000     3.594000000
C     5.360000000     0.381000000     0.776000000
H     5.509000000     1.295000000     0.206000000
C     6.105000000    -0.780000000     0.610000000
O     6.929000000    -0.845000000    -0.478000000
C     5.911000000    -1.851000000     1.405000000
H     6.398000000    -2.802000000     1.207000000
C     5.044000000    -1.755000000     2.504000000
O     4.910000000    -2.835000000     3.398000000
C     4.083000000    -2.780000000     4.481000000
C     2.761000000    -3.379000000     4.425000000
H     2.494000000    -3.859000000     3.487000000
C     4.529000000    -2.146000000     5.635000000
H     5.389000000    -1.482000000     5.607000000
C     3.609000000    -2.045000000     6.676000000
H     3.935000000    -1.493000000     7.554000000
C     2.359000000    -2.711000000     6.668000000
H     1.793000000    -2.669000000     7.595000000
C     1.926000000    -3.342000000     5.507000000
O     0.700000000    -3.870000000     5.457000000
C    -0.500000000    -3.383000000     4.985000000
C    -1.616000000    -4.208000000     5.077000000
H    -1.610000000    -5.237000000     5.429000000
C    -2.802000000    -3.755000000     4.548000000
O    -3.865000000    -4.612000000     4.455000000
C    -4.578000000    -4.626000000     3.285000000
C    -3.995000000    -4.597000000     1.982000000
H    -2.913000000    -4.551000000     1.889000000
C    -5.996000000    -4.763000000     3.358000000
H    -6.407000000    -4.981000000     4.340000000
C    -6.798000000    -4.701000000     2.199000000
H    -7.857000000    -4.930000000     2.290000000
C    -6.209000000    -4.616000000     0.974000000
H    -6.718000000    -4.650000000     0.015000000
C    -4.837000000    -4.611000000     0.854000000
O    -4.354000000    -4.696000000    -0.424000000
C    -4.228000000    -3.681000000    -1.446000000
C    -3.886000000    -4.001000000    -2.763000000
H    -3.647000000    -5.008000000    -3.094000000
C    -3.705000000    -2.947000000    -3.694000000
O    -3.445000000    -3.268000000    -4.989000000
C    -2.697000000    -2.475000000    -5.828000000
C    -1.339000000    -2.477000000    -5.832000000
H    -0.870000000    -2.989000000    -4.996000000
C    -3.408000000    -1.688000000    -6.801000000
H    -4.486000000    -1.677000000    -6.661000000
C    -2.799000000    -0.882000000    -7.697000000
H    -3.411000000    -0.288000000    -8.371000000
C    -1.347000000    -0.879000000    -7.654000000
H    -0.770000000    -0.329000000    -8.393000000
C    -0.664000000    -1.677000000    -6.728000000
O     0.710000000    -1.644000000    -6.670000000
C     1.481000000    -0.850000000    -5.807000000
C     2.856000000    -0.985000000    -5.788000000
H     3.303000000    -1.841000000    -6.286000000
C     3.632000000    -0.364000000    -4.846000000
O     4.986000000    -0.453000000    -4.877000000
C     5.833000000     0.000000000    -3.854000000
C     6.903000000     0.809000000    -4.272000000
H     7.031000000     0.876000000    -5.349000000
C     7.956000000     1.128000000    -3.305000000
H     8.884000000     1.618000000    -3.591000000
C     7.815000000     0.692000000    -2.027000000
H     8.706000000     0.792000000    -1.412000000
C     6.790000000    -0.115000000    -1.654000000
C     5.778000000    -0.486000000    -2.559000000
H     5.022000000    -1.233000000    -2.331000000
C     1.399000000    -1.034000000     0.222000000
H     2.342000000    -0.829000000    -0.278000000
C     0.562000000     0.007000000     0.176000000
H     0.864000000     1.034000000    -0.011000000
C    -0.770000000    -0.251000000     0.578000000
H    -1.390000000     0.644000000     0.534000000
C    -1.222000000    -1.518000000     0.978000000
H    -2.241000000    -1.709000000     1.305000000
C    -0.336000000    -2.601000000     0.928000000
H    -0.687000000    -3.596000000     1.190000000
C     1.027000000    -2.359000000     0.578000000
C     2.021000000    -3.520000000     0.642000000
O     1.680000000    -4.543000000     1.233000000
O     3.083000000    -3.380000000     0.058000000
O    -0.128000000    -5.879000000     2.815000000
H     0.465000000    -5.393000000     2.241000000
H     0.200000000    -5.708000000     3.698000000
O    -0.671000000    -8.527000000     3.581000000
H    -0.068000000    -8.672000000     4.310000000
H    -0.325000000    -7.755000000     3.134000000
O     7.682000000    -4.686000000     3.472000000
H     8.466000000    -4.769000000     2.929000000
H     7.068000000    -4.189000000     2.931000000
O     2.847000000    -7.494000000     3.377000000
H     3.676000000    -7.949000000     3.527000000
H     2.434000000    -7.459000000     4.240000000
O     3.584000000    -5.640000000    -1.392000000
H     3.321000000    -6.362000000    -0.820000000
H     3.425000000    -4.853000000    -0.872000000
O     0.154000000    -7.522000000    -1.314000000
H    -0.141000000    -6.720000000    -1.744000000
H     0.654000000    -7.217000000    -0.556000000
O    -0.435000000    -4.524000000    -2.415000000
H     0.211000000    -4.017000000    -2.907000000
H    -1.077000000    -3.876000000    -2.125000000
O     4.689000000    -5.652000000     1.991000000
H     3.773000000    -5.627000000     2.269000000
H     4.833000000    -4.806000000     1.566000000
O    -2.201000000    -7.055000000     1.297000000
H    -1.555000000    -6.558000000     1.798000000
H    -1.889000000    -7.959000000     1.333000000
O     2.016000000    -7.184000000     0.820000000
H     1.859000000    -6.245000000     0.917000000
H     2.277000000    -7.475000000     1.693000000
O     2.574000000    -2.346000000    -2.603000000
H     2.623000000    -2.935000000    -3.355000000
H     2.838000000    -2.885000000    -1.858000000
O     5.330000000    -6.543000000    -3.292000000
H     4.804000000    -6.164000000    -2.587000000
H     4.768000000    -6.488000000    -4.065000000
O     5.421000000    -3.726000000    -4.440000000
H     5.749000000    -3.830000000    -3.546000000
H     4.472000000    -3.649000000    -4.339000000
O    -0.389000000    -6.139000000    -4.644000000
H    -1.234000000    -6.173000000    -5.092000000
H    -0.502000000    -5.468000000    -3.971000000
O     5.889000000    -3.456000000    -1.604000000
H     4.975000000    -3.335000000    -1.347000000
H     6.386000000    -2.929000000    -0.979000000
O     2.582000000    -4.191000000    -4.576000000
H     2.499000000    -5.061000000    -4.185000000
H     2.200000000    -4.283000000    -5.448000000
O     6.368000000    -7.796000000     1.202000000
H     5.795000000    -8.281000000     1.796000000
H     6.188000000    -6.876000000     1.395000000
O    -0.196000000    -1.703000000    -2.530000000
H    -0.470000000    -1.460000000    -1.646000000
H     0.756000000    -1.601000000    -2.522000000
O     4.555000000    -8.988000000    -0.916000000
H     4.497000000    -8.334000000    -0.220000000
H     3.767000000    -8.848000000    -1.442000000
