215
-1451.45204
C    -2.171000000    -3.541000000     3.420000000
H    -3.233000000    -3.319000000     3.341000000
C    -1.190000000    -2.571000000     3.722000000
C     0.167000000    -2.960000000     3.532000000
H     0.902000000    -2.159000000     3.515000000
C    -1.593000000    -1.139000000     3.696000000
O    -3.003000000    -0.925000000     3.916000000
H    -1.225000000    -0.690000000     2.762000000
O    -0.895000000    -0.451000000     4.757000000
C    -0.304000000     0.794000000     4.520000000
C     1.102000000     0.941000000     4.278000000
H     1.678000000     0.059000000     4.547000000
C     1.707000000     2.104000000     3.982000000
O     3.039000000     2.097000000     3.606000000
C     0.923000000     3.234000000     3.699000000
C     1.399000000     4.572000000     3.195000000
H     0.811000000     5.347000000     3.691000000
C     1.410000000     4.530000000     1.741000000
C     0.250000000     4.927000000     0.986000000
H    -0.510000000     5.507000000     1.503000000
H     2.408000000     4.698000000     3.594000000
C    -0.427000000     3.123000000     3.919000000
H    -0.931000000     4.085000000     3.885000000
C    -1.095000000     1.903000000     4.227000000
C    -2.577000000     1.878000000     4.455000000
H    -2.943000000     2.858000000     4.766000000
H    -2.798000000     1.295000000     5.352000000
C    -3.374000000     1.328000000     3.274000000
C    -3.883000000     2.206000000     2.317000000
H    -3.742000000     3.264000000     2.521000000
C    -3.571000000    -0.043000000     3.091000000
C    -4.214000000    -0.520000000     1.978000000
H    -4.223000000    -1.593000000     1.800000000
C    -4.760000000     0.318000000     0.992000000
O    -5.224000000    -0.195000000    -0.205000000
C    -4.281000000    -0.158000000    -1.296000000
C    -4.177000000    -1.506000000    -2.024000000
C    -3.347000000    -1.619000000    -3.133000000
H    -2.874000000    -0.719000000    -3.517000000
C    -4.652000000    -2.647000000    -1.426000000
H    -5.269000000    -2.601000000    -0.531000000
O    -4.571000000     0.901000000    -2.222000000
H    -3.344000000     0.102000000    -0.781000000
C    -4.488000000     1.666000000     1.177000000
C    -4.993000000     2.715000000     0.132000000
H    -5.193000000     3.694000000     0.574000000
H    -5.962000000     2.487000000    -0.316000000
C    -3.951000000     2.882000000    -0.956000000
C    -2.994000000     3.911000000    -0.723000000
H    -3.043000000     4.569000000     0.141000000
C    -3.814000000     2.037000000    -2.045000000
C    -2.813000000     2.285000000    -2.981000000
H    -2.713000000     1.588000000    -3.809000000
C    -1.805000000     3.247000000    -2.694000000
O    -0.726000000     3.141000000    -3.470000000
C     0.448000000     2.590000000    -2.833000000
C     1.262000000     1.807000000    -3.846000000
C     0.620000000     1.213000000    -4.982000000
H    -0.426000000     1.286000000    -5.267000000
C     2.673000000     1.632000000    -3.578000000
H     3.094000000     1.931000000    -2.621000000
O     1.329000000     3.656000000    -2.321000000
H     0.146000000     1.844000000    -2.083000000
C    -1.922000000     4.114000000    -1.606000000
C    -0.947000000     5.224000000    -1.306000000
H    -1.360000000     6.160000000    -0.925000000
H    -0.449000000     5.484000000    -2.242000000
C     0.179000000     4.653000000    -0.378000000
C     1.228000000     3.994000000    -0.997000000
C     2.329000000     3.650000000    -0.249000000
H     3.177000000     3.212000000    -0.770000000
C     2.470000000     3.937000000     1.101000000
O     3.478000000     3.394000000     1.793000000
C     3.367000000     2.040000000     2.147000000
H     2.609000000     1.541000000     1.525000000
C     4.628000000     1.179000000     1.852000000
C     4.803000000    -0.022000000     2.611000000
H     4.022000000    -0.407000000     3.262000000
C     5.497000000     1.510000000     0.800000000
H     5.369000000     2.453000000     0.275000000
C     6.615000000     0.670000000     0.551000000
O     7.606000000     1.023000000    -0.354000000
C     6.776000000    -0.529000000     1.257000000
H     7.561000000    -1.241000000     1.017000000
C     5.863000000    -0.878000000     2.238000000
O     5.995000000    -2.195000000     2.738000000
C     5.037000000    -2.854000000     3.548000000
C     4.028000000    -3.626000000     2.994000000
H     4.097000000    -3.844000000     1.931000000
C     5.040000000    -2.466000000     4.836000000
H     5.853000000    -1.889000000     5.269000000
C     4.052000000    -2.870000000     5.695000000
H     4.090000000    -2.645000000     6.758000000
C     2.947000000    -3.536000000     5.085000000
H     2.152000000    -3.853000000     5.755000000
C     2.915000000    -3.960000000     3.756000000
O     1.861000000    -4.723000000     3.264000000
C     0.520000000    -4.278000000     3.298000000
C    -0.455000000    -5.206000000     3.140000000
H    -0.113000000    -6.210000000     2.904000000
C    -1.798000000    -4.891000000     3.145000000
O    -2.788000000    -5.897000000     2.908000000
C    -3.890000000    -5.708000000     2.094000000
C    -3.813000000    -5.324000000     0.769000000
H    -2.920000000    -5.013000000     0.232000000
C    -5.099000000    -5.971000000     2.644000000
H    -5.319000000    -6.230000000     3.676000000
C    -6.218000000    -6.087000000     1.821000000
H    -7.156000000    -6.460000000     2.224000000
C    -6.195000000    -5.699000000     0.484000000
H    -7.088000000    -5.665000000    -0.135000000
C    -4.965000000    -5.367000000    -0.039000000
O    -4.921000000    -5.036000000    -1.403000000
C    -4.388000000    -3.894000000    -1.999000000
C    -3.625000000    -4.088000000    -3.121000000
H    -3.415000000    -5.032000000    -3.617000000
C    -3.114000000    -2.903000000    -3.707000000
O    -2.222000000    -3.081000000    -4.704000000
C    -1.921000000    -2.146000000    -5.675000000
C    -0.615000000    -1.639000000    -5.764000000
H     0.171000000    -2.026000000    -5.121000000
C    -2.857000000    -1.925000000    -6.675000000
H    -3.813000000    -2.435000000    -6.602000000
C    -2.580000000    -1.065000000    -7.768000000
H    -3.249000000    -0.829000000    -8.593000000
C    -1.277000000    -0.513000000    -7.895000000
H    -0.966000000     0.144000000    -8.704000000
C    -0.402000000    -0.785000000    -6.841000000
O     0.883000000    -0.225000000    -6.933000000
C     1.427000000     0.540000000    -5.892000000
C     2.800000000     0.386000000    -5.659000000
H     3.310000000    -0.220000000    -6.404000000
C     3.447000000     0.981000000    -4.553000000
O     4.824000000     0.779000000    -4.291000000
C     5.647000000     1.462000000    -3.460000000
C     6.085000000     2.749000000    -3.766000000
H     5.607000000     3.080000000    -4.685000000
C     6.999000000     3.449000000    -3.033000000
H     7.356000000     4.394000000    -3.434000000
C     7.556000000     2.797000000    -1.888000000
H     8.357000000     3.257000000    -1.315000000
C     7.162000000     1.486000000    -1.552000000
C     6.192000000     0.824000000    -2.328000000
H     5.827000000    -0.115000000    -1.920000000
C     1.747000000    -2.216000000     0.369000000
H     2.642000000    -2.677000000     0.779000000
C     1.441000000    -0.943000000     0.986000000
H     2.010000000    -0.540000000     1.821000000
C     0.368000000    -0.178000000     0.495000000
H     0.097000000     0.747000000     0.884000000
C    -0.457000000    -0.835000000    -0.471000000
H    -1.280000000    -0.212000000    -0.812000000
C    -0.235000000    -2.102000000    -1.040000000
H    -0.959000000    -2.520000000    -1.735000000
C     0.922000000    -2.813000000    -0.595000000
C     1.190000000    -4.282000000    -1.210000000
O     0.361000000    -4.820000000    -1.941000000
O     2.215000000    -4.935000000    -0.953000000
O     3.648000000    -9.356000000    -4.221000000
H     2.937000000    -9.903000000    -4.557000000
H     3.381000000    -8.461000000    -4.431000000
O     3.710000000    -2.177000000    -2.989000000
H     3.517000000    -2.497000000    -3.870000000
H     3.459000000    -1.254000000    -3.009000000
O     2.382000000    -3.063000000    -6.081000000
H     1.920000000    -3.647000000    -5.479000000
H     1.819000000    -3.022000000    -6.854000000
O     5.056000000    -5.215000000    -4.472000000
H     4.295000000    -4.964000000    -3.947000000
H     5.491000000    -5.892000000    -3.954000000
O     1.234000000    -5.043000000    -4.648000000
H     0.687000000    -4.748000000    -3.920000000
H     0.618000000    -5.194000000    -5.365000000
O     0.771000000    -7.174000000     0.041000000
H     1.219000000    -6.516000000    -0.491000000
H    -0.096000000    -7.254000000    -0.357000000
O     3.351000000    -6.242000000     1.203000000
H     2.785000000    -6.502000000     1.929000000
H     2.758000000    -5.843000000     0.567000000
O     4.242000000    -8.055000000    -0.858000000
H     4.060000000    -7.330000000    -0.261000000
H     3.934000000    -7.747000000    -1.711000000
O    -0.805000000    -5.042000000    -6.577000000
H    -1.006000000    -4.808000000    -7.483000000
H    -1.584000000    -5.508000000    -6.272000000
O    -1.209000000    -7.014000000    -2.649000000
H    -0.824000000    -6.141000000    -2.572000000
H    -0.748000000    -7.415000000    -3.386000000
O     6.210000000    -5.675000000     1.399000000
H     5.261000000    -5.770000000     1.326000000
H     6.421000000    -4.929000000     0.837000000
O     4.757000000    -3.802000000    -1.002000000
H     3.940000000    -4.284000000    -0.873000000
H     4.536000000    -3.122000000    -1.639000000
O     2.031000000    -9.965000000     0.640000000
H     1.749000000    -9.071000000     0.833000000
H     2.929000000   -10.009000000     0.970000000
O     7.060000000    -4.336000000    -2.466000000
H     6.249000000    -4.095000000    -2.019000000
H     7.732000000    -3.798000000    -2.049000000
O     0.011000000    -8.556000000    -4.714000000
H     0.276000000    -9.377000000    -4.300000000
H     0.459000000    -8.559000000    -5.560000000
O    -3.575000000    -7.812000000    -1.324000000
H    -4.318000000    -7.308000000    -1.654000000
H    -2.866000000    -7.626000000    -1.940000000
O     2.966000000    -6.396000000    -2.932000000
H     2.825000000    -5.794000000    -2.201000000
H     2.290000000    -6.163000000    -3.568000000
O     6.428000000    -2.874000000    -4.876000000
H     5.958000000    -3.570000000    -4.416000000
H     5.907000000    -2.710000000    -5.661000000
O    -2.202000000    -7.530000000    -6.037000000
H    -1.389000000    -7.689000000    -5.557000000
H    -1.981000000    -7.715000000    -6.950000000
