215
-1433.52279
C    -2.328000000    -3.292000000     3.222000000
H    -3.276000000    -2.772000000     3.106000000
C    -1.185000000    -2.550000000     3.550000000
C     0.042000000    -3.220000000     3.563000000
H     0.969000000    -2.709000000     3.811000000
C    -1.260000000    -1.036000000     3.680000000
O    -2.618000000    -0.629000000     3.845000000
H    -0.913000000    -0.624000000     2.721000000
O    -0.531000000    -0.532000000     4.786000000
C     0.176000000     0.662000000     4.580000000
C     1.518000000     0.469000000     4.219000000
H     1.909000000    -0.544000000     4.268000000
C     2.210000000     1.618000000     3.860000000
O     3.522000000     1.319000000     3.423000000
C     1.577000000     2.905000000     3.709000000
C     2.355000000     4.076000000     3.178000000
H     1.756000000     4.954000000     3.428000000
C     2.382000000     4.036000000     1.644000000
C     1.362000000     4.736000000     0.961000000
H     0.629000000     5.360000000     1.465000000
H     3.322000000     4.030000000     3.684000000
C     0.231000000     2.983000000     4.135000000
H    -0.382000000     3.862000000     3.955000000
C    -0.470000000     1.908000000     4.559000000
C    -1.943000000     2.040000000     4.809000000
H    -2.208000000     3.007000000     5.243000000
H    -2.305000000     1.356000000     5.580000000
C    -2.747000000     1.769000000     3.529000000
C    -3.168000000     2.842000000     2.692000000
H    -2.753000000     3.810000000     2.964000000
C    -3.171000000     0.477000000     3.264000000
C    -3.956000000     0.258000000     2.147000000
H    -4.279000000    -0.735000000     1.848000000
C    -4.239000000     1.207000000     1.261000000
O    -4.813000000     0.732000000     0.140000000
C    -4.052000000     0.680000000    -1.042000000
C    -4.360000000    -0.577000000    -1.768000000
C    -3.903000000    -0.817000000    -3.062000000
H    -3.395000000     0.045000000    -3.486000000
C    -4.917000000    -1.680000000    -1.105000000
H    -5.135000000    -1.556000000    -0.048000000
O    -4.272000000     1.902000000    -1.763000000
H    -3.001000000     0.576000000    -0.735000000
C    -3.876000000     2.524000000     1.508000000
C    -4.180000000     3.667000000     0.565000000
H    -4.182000000     4.648000000     1.045000000
H    -5.214000000     3.676000000     0.215000000
C    -3.235000000     3.722000000    -0.668000000
C    -2.166000000     4.595000000    -0.579000000
H    -2.011000000     5.318000000     0.218000000
C    -3.433000000     2.896000000    -1.748000000
C    -2.388000000     2.815000000    -2.660000000
H    -2.356000000     2.005000000    -3.384000000
C    -1.173000000     3.531000000    -2.474000000
O    -0.162000000     3.327000000    -3.343000000
C     0.978000000     2.596000000    -2.870000000
C     1.495000000     1.773000000    -4.006000000
C     0.690000000     0.948000000    -4.787000000
H    -0.383000000     0.845000000    -4.650000000
C     2.836000000     1.844000000    -4.421000000
H     3.537000000     2.426000000    -3.828000000
O     1.996000000     3.523000000    -2.347000000
H     0.568000000     2.047000000    -2.009000000
C    -1.099000000     4.509000000    -1.462000000
C     0.196000000     5.292000000    -1.229000000
H    -0.010000000     6.176000000    -0.623000000
H     0.622000000     5.638000000    -2.173000000
C     1.198000000     4.514000000    -0.391000000
C     2.090000000     3.732000000    -1.004000000
C     3.197000000     3.098000000    -0.403000000
H     3.927000000     2.584000000    -1.023000000
C     3.302000000     3.249000000     0.949000000
O     4.258000000     2.493000000     1.577000000
C     3.807000000     1.183000000     2.011000000
H     2.865000000     0.992000000     1.476000000
C     4.755000000     0.065000000     1.509000000
C     4.879000000    -1.049000000     2.289000000
H     4.368000000    -0.989000000     3.246000000
C     5.190000000     0.017000000     0.178000000
H     4.906000000     0.783000000    -0.540000000
C     5.907000000    -1.100000000    -0.241000000
O     6.305000000    -1.234000000    -1.541000000
C     6.089000000    -2.206000000     0.625000000
H     6.557000000    -3.070000000     0.160000000
C     5.480000000    -2.245000000     1.855000000
O     5.551000000    -3.383000000     2.634000000
C     4.577000000    -3.826000000     3.556000000
C     3.380000000    -4.289000000     3.125000000
H     3.145000000    -4.417000000     2.072000000
C     4.842000000    -3.817000000     4.893000000
H     5.827000000    -3.504000000     5.229000000
C     3.825000000    -4.173000000     5.789000000
H     3.990000000    -4.213000000     6.863000000
C     2.569000000    -4.560000000     5.308000000
H     1.883000000    -4.921000000     6.070000000
C     2.366000000    -4.668000000     4.001000000
O     1.192000000    -5.257000000     3.567000000
C     0.077000000    -4.572000000     3.327000000
C    -1.148000000    -5.268000000     3.158000000
H    -1.119000000    -6.354000000     3.130000000
C    -2.336000000    -4.617000000     2.922000000
O    -3.504000000    -5.357000000     2.677000000
C    -4.662000000    -4.835000000     2.107000000
C    -4.683000000    -4.435000000     0.744000000
H    -3.829000000    -4.467000000     0.073000000
C    -5.935000000    -4.912000000     2.775000000
H    -5.952000000    -5.140000000     3.838000000
C    -7.126000000    -4.661000000     2.120000000
H    -8.038000000    -4.781000000     2.698000000
C    -7.045000000    -4.224000000     0.832000000
H    -8.016000000    -4.076000000     0.367000000
C    -5.856000000    -4.158000000     0.092000000
O    -5.887000000    -3.885000000    -1.223000000
C    -5.268000000    -2.829000000    -1.819000000
C    -4.888000000    -3.007000000    -3.123000000
H    -5.168000000    -3.959000000    -3.567000000
C    -4.309000000    -1.957000000    -3.761000000
O    -3.932000000    -2.181000000    -5.049000000
C    -3.183000000    -1.355000000    -5.813000000
C    -1.841000000    -1.486000000    -6.017000000
H    -1.354000000    -2.318000000    -5.514000000
C    -3.775000000    -0.251000000    -6.358000000
H    -4.802000000     0.027000000    -6.137000000
C    -3.008000000     0.698000000    -7.137000000
H    -3.551000000     1.621000000    -7.322000000
C    -1.616000000     0.698000000    -7.191000000
H    -1.082000000     1.424000000    -7.798000000
C    -1.047000000    -0.511000000    -6.637000000
O     0.328000000    -0.661000000    -6.564000000
C     1.187000000     0.093000000    -5.760000000
C     2.579000000     0.022000000    -5.911000000
H     2.936000000    -0.771000000    -6.562000000
C     3.416000000     0.950000000    -5.311000000
O     4.759000000     0.947000000    -5.448000000
C     5.574000000     0.948000000    -4.356000000
C     6.650000000     1.835000000    -4.251000000
H     6.678000000     2.620000000    -5.003000000
C     7.603000000     1.734000000    -3.182000000
H     8.352000000     2.507000000    -3.030000000
C     7.473000000     0.729000000    -2.270000000
H     8.041000000     0.797000000    -1.346000000
C     6.395000000    -0.151000000    -2.394000000
C     5.522000000    -0.093000000    -3.430000000
H     4.761000000    -0.867000000    -3.479000000
C     1.436000000    -1.182000000    -0.967000000
H     2.333000000    -1.476000000    -1.505000000
C     1.198000000     0.171000000    -0.640000000
H     1.997000000     0.896000000    -0.773000000
C     0.013000000     0.448000000     0.056000000
H    -0.199000000     1.498000000     0.365000000
C    -0.970000000    -0.507000000     0.259000000
H    -1.822000000    -0.236000000     0.877000000
C    -0.747000000    -1.771000000    -0.084000000
H    -1.537000000    -2.507000000     0.045000000
C     0.484000000    -2.119000000    -0.682000000
C     0.655000000    -3.545000000    -1.154000000
O    -0.076000000    -4.371000000    -0.630000000
O     1.494000000    -3.852000000    -2.036000000
O     0.063000000    -5.084000000    -7.084000000
H    -0.762000000    -5.546000000    -6.937000000
H    -0.140000000    -4.440000000    -7.762000000
O     1.717000000    -2.915000000    -5.446000000
H     1.286000000    -3.648000000    -5.005000000
H     1.075000000    -2.206000000    -5.415000000
O     4.160000000    -6.518000000    -3.817000000
H     3.327000000    -6.474000000    -3.346000000
H     4.331000000    -5.615000000    -4.085000000
O     1.001000000    -7.279000000    -5.700000000
H     0.129000000    -7.567000000    -5.428000000
H     0.975000000    -6.326000000    -5.616000000
O    -0.334000000    -4.676000000    -3.903000000
H    -1.026000000    -5.171000000    -3.465000000
H     0.240000000    -4.388000000    -3.194000000
O    -2.100000000    -5.698000000    -1.485000000
H    -1.545000000    -5.092000000    -0.995000000
H    -1.679000000    -6.551000000    -1.375000000
O     0.924000000    -6.608000000     0.865000000
H     1.204000000    -6.276000000     1.718000000
H     0.661000000    -5.827000000     0.378000000
O     2.730000000   -10.284000000    -1.405000000
H     2.197000000   -10.107000000    -2.180000000
H     3.353000000    -9.557000000    -1.372000000
O     6.671000000    -6.023000000    -0.062000000
H     7.610000000    -5.861000000     0.032000000
H     6.435000000    -5.590000000    -0.883000000
O    -4.660000000    -6.864000000    -1.990000000
H    -3.986000000    -6.307000000    -1.601000000
H    -4.308000000    -7.104000000    -2.847000000
O     4.592000000    -8.366000000    -1.446000000
H     4.714000000    -7.480000000    -1.105000000
H     5.202000000    -8.425000000    -2.182000000
O     3.737000000    -3.273000000    -3.341000000
H     3.018000000    -3.626000000    -2.817000000
H     3.311000000    -2.894000000    -4.109000000
O    -0.744000000    -8.967000000     0.302000000
H    -0.610000000    -8.800000000    -0.631000000
H    -0.276000000    -8.258000000     0.742000000
O     6.146000000    -4.259000000    -2.390000000
H     5.398000000    -3.731000000    -2.669000000
H     6.891000000    -3.885000000    -2.860000000
O     0.146000000    -8.213000000    -2.275000000
H     0.544000000    -8.987000000    -2.673000000
H     0.839000000    -7.553000000    -2.289000000
O    -3.126000000    -8.750000000     1.308000000
H    -2.299000000    -8.945000000     0.868000000
H    -3.783000000    -9.236000000     0.810000000
O     2.164000000    -6.295000000    -1.937000000
H     1.836000000    -5.396000000    -1.918000000
H     2.286000000    -6.525000000    -1.016000000
O    -1.411000000    -7.449000000    -4.506000000
H    -2.367000000    -7.431000000    -4.461000000
H    -1.129000000    -7.491000000    -3.593000000
O     3.224000000    -3.530000000    -8.384000000
H     2.858000000    -3.431000000    -7.505000000
H     3.203000000    -2.647000000    -8.753000000
