215
-1451.95370
C    -2.538000000    -3.511000000     3.011000000
H    -3.472000000    -3.007000000     2.775000000
C    -1.435000000    -2.762000000     3.536000000
C    -0.192000000    -3.383000000     3.601000000
H     0.675000000    -2.786000000     3.873000000
C    -1.554000000    -1.253000000     3.628000000
O    -2.953000000    -0.916000000     3.894000000
H    -1.155000000    -0.833000000     2.693000000
O    -0.765000000    -0.659000000     4.739000000
C    -0.163000000     0.534000000     4.497000000
C     1.218000000     0.501000000     4.407000000
H     1.734000000    -0.451000000     4.499000000
C     1.876000000     1.676000000     4.107000000
O     3.170000000     1.574000000     3.777000000
C     1.216000000     2.905000000     3.925000000
C     1.882000000     4.155000000     3.456000000
H     1.267000000     4.983000000     3.814000000
C     1.855000000     4.230000000     1.986000000
C     0.897000000     4.904000000     1.210000000
H     0.138000000     5.418000000     1.795000000
H     2.870000000     4.196000000     3.919000000
C    -0.178000000     2.933000000     4.175000000
H    -0.747000000     3.856000000     4.095000000
C    -0.862000000     1.757000000     4.428000000
C    -2.323000000     1.798000000     4.665000000
H    -2.683000000     2.805000000     4.887000000
H    -2.658000000     1.138000000     5.468000000
C    -3.161000000     1.464000000     3.406000000
C    -3.617000000     2.435000000     2.523000000
H    -3.366000000     3.450000000     2.818000000
C    -3.444000000     0.113000000     3.099000000
C    -4.135000000    -0.216000000     1.954000000
H    -4.331000000    -1.237000000     1.635000000
C    -4.463000000     0.784000000     1.060000000
O    -4.883000000     0.307000000    -0.164000000
C    -3.978000000     0.281000000    -1.309000000
C    -4.181000000    -0.970000000    -2.154000000
C    -3.392000000    -1.217000000    -3.295000000
H    -2.618000000    -0.519000000    -3.603000000
C    -5.116000000    -1.980000000    -1.851000000
H    -5.695000000    -1.764000000    -0.957000000
O    -4.179000000     1.436000000    -2.092000000
H    -2.966000000     0.129000000    -0.906000000
C    -4.185000000     2.164000000     1.302000000
C    -4.540000000     3.137000000     0.184000000
H    -4.641000000     4.125000000     0.638000000
H    -5.429000000     2.770000000    -0.332000000
C    -3.396000000     3.321000000    -0.751000000
C    -2.419000000     4.283000000    -0.480000000
H    -2.445000000     4.985000000     0.350000000
C    -3.361000000     2.561000000    -1.963000000
C    -2.302000000     2.757000000    -2.871000000
H    -2.212000000     2.157000000    -3.773000000
C    -1.306000000     3.628000000    -2.588000000
O    -0.141000000     3.508000000    -3.329000000
C     0.969000000     2.873000000    -2.752000000
C     1.699000000     2.134000000    -3.912000000
C     0.958000000     1.494000000    -4.942000000
H    -0.122000000     1.548000000    -5.058000000
C     3.051000000     1.700000000    -3.681000000
H     3.597000000     2.092000000    -2.827000000
O     1.779000000     3.894000000    -2.147000000
H     0.708000000     2.038000000    -2.085000000
C    -1.322000000     4.428000000    -1.402000000
C    -0.238000000     5.452000000    -1.038000000
H    -0.607000000     6.312000000    -0.475000000
H     0.230000000     5.888000000    -1.922000000
C     0.788000000     4.724000000    -0.195000000
C     1.700000000     3.939000000    -0.823000000
C     2.685000000     3.300000000    -0.064000000
H     3.387000000     2.648000000    -0.577000000
C     2.765000000     3.457000000     1.323000000
O     3.777000000     2.812000000     1.907000000
C     3.474000000     1.479000000     2.370000000
H     2.666000000     1.072000000     1.744000000
C     4.604000000     0.514000000     2.039000000
C     4.563000000    -0.785000000     2.531000000
H     3.816000000    -1.026000000     3.283000000
C     5.619000000     0.880000000     1.172000000
H     5.640000000     1.894000000     0.779000000
C     6.476000000    -0.089000000     0.604000000
O     7.457000000     0.235000000    -0.291000000
C     6.341000000    -1.428000000     1.038000000
H     7.031000000    -2.187000000     0.678000000
C     5.446000000    -1.742000000     1.979000000
O     5.328000000    -3.091000000     2.355000000
C     4.456000000    -3.696000000     3.188000000
C     3.298000000    -4.236000000     2.769000000
H     2.994000000    -4.132000000     1.731000000
C     4.814000000    -3.918000000     4.545000000
H     5.761000000    -3.565000000     4.946000000
C     3.919000000    -4.430000000     5.434000000
H     4.330000000    -4.822000000     6.361000000
C     2.682000000    -4.895000000     5.022000000
H     1.935000000    -5.389000000     5.638000000
C     2.378000000    -4.847000000     3.652000000
O     1.175000000    -5.418000000     3.194000000
C    -0.034000000    -4.740000000     3.208000000
C    -1.143000000    -5.503000000     2.937000000
H    -1.063000000    -6.527000000     2.583000000
C    -2.385000000    -4.858000000     2.746000000
O    -3.385000000    -5.618000000     2.150000000
C    -4.420000000    -5.027000000     1.525000000
C    -4.453000000    -4.892000000     0.145000000
H    -3.576000000    -5.279000000    -0.369000000
C    -5.538000000    -4.650000000     2.292000000
H    -5.468000000    -4.722000000     3.374000000
C    -6.730000000    -4.233000000     1.679000000
H    -7.630000000    -4.080000000     2.268000000
C    -6.793000000    -4.086000000     0.282000000
H    -7.760000000    -3.795000000    -0.121000000
C    -5.659000000    -4.479000000    -0.515000000
O    -5.654000000    -4.340000000    -1.873000000
C    -5.119000000    -3.234000000    -2.502000000
C    -4.393000000    -3.430000000    -3.677000000
H    -4.296000000    -4.387000000    -4.183000000
C    -3.490000000    -2.433000000    -4.002000000
O    -2.741000000    -2.691000000    -5.167000000
C    -2.343000000    -1.660000000    -6.025000000
C    -0.975000000    -1.545000000    -6.154000000
H    -0.342000000    -2.261000000    -5.637000000
C    -3.211000000    -0.655000000    -6.484000000
H    -4.261000000    -0.807000000    -6.244000000
C    -2.793000000     0.503000000    -7.115000000
H    -3.407000000     1.322000000    -7.481000000
C    -1.368000000     0.617000000    -7.249000000
H    -0.867000000     1.517000000    -7.598000000
C    -0.501000000    -0.363000000    -6.754000000
O     0.885000000    -0.233000000    -6.727000000
C     1.556000000     0.462000000    -5.657000000
C     2.900000000     0.070000000    -5.510000000
H     3.285000000    -0.749000000    -6.113000000
C     3.689000000     0.694000000    -4.528000000
O     4.930000000     0.130000000    -4.281000000
C     5.804000000     0.898000000    -3.525000000
C     6.251000000     2.180000000    -3.763000000
H     5.848000000     2.700000000    -4.628000000
C     7.039000000     2.786000000    -2.858000000
H     7.374000000     3.806000000    -3.033000000
C     7.566000000     2.076000000    -1.742000000
H     8.251000000     2.490000000    -1.007000000
C     7.100000000     0.807000000    -1.479000000
C     6.259000000     0.180000000    -2.407000000
H     5.888000000    -0.825000000    -2.222000000
C     1.691000000    -2.501000000    -0.717000000
H     2.678000000    -2.791000000    -1.071000000
C     1.595000000    -1.223000000    -0.053000000
H     2.516000000    -0.666000000     0.101000000
C     0.291000000    -0.780000000     0.402000000
H     0.016000000     0.186000000     0.782000000
C    -0.836000000    -1.601000000     0.101000000
H    -1.860000000    -1.319000000     0.331000000
C    -0.687000000    -2.850000000    -0.597000000
H    -1.546000000    -3.478000000    -0.820000000
C     0.574000000    -3.301000000    -0.881000000
C     0.802000000    -4.683000000    -1.371000000
O    -0.157000000    -5.200000000    -1.857000000
O     1.920000000    -5.231000000    -1.490000000
O     1.840000000    -3.220000000    -4.468000000
H     1.584000000    -3.996000000    -4.967000000
H     1.199000000    -3.171000000    -3.758000000
O     0.776000000    -5.312000000    -6.983000000
H     0.293000000    -5.458000000    -6.169000000
H     0.109000000    -5.035000000    -7.611000000
O     2.466000000    -8.299000000     4.018000000
H     2.104000000    -7.415000000     4.075000000
H     1.755000000    -8.826000000     3.653000000
O     3.504000000    -6.999000000    -5.223000000
H     2.868000000    -6.966000000    -4.509000000
H     3.349000000    -6.196000000    -5.720000000
O    -0.667000000    -5.151000000    -4.498000000
H    -0.697000000    -5.091000000    -3.543000000
H    -1.259000000    -4.462000000    -4.799000000
O    -1.763000000    -7.319000000    -1.329000000
H    -1.426000000    -6.480000000    -1.643000000
H    -1.140000000    -7.591000000    -0.655000000
O     2.950000000    -7.351000000    -0.792000000
H     3.652000000    -7.098000000    -0.192000000
H     2.565000000    -6.521000000    -1.073000000
O     1.150000000   -10.962000000    -1.913000000
H     1.137000000   -11.186000000    -2.844000000
H     1.961000000   -10.467000000    -1.797000000
O    -3.953000000    -6.944000000    -3.298000000
H    -3.128000000    -6.884000000    -2.816000000
H    -3.745000000    -6.611000000    -4.171000000
O     5.872000000    -6.752000000     0.747000000
H     6.245000000    -5.984000000     1.178000000
H     6.041000000    -6.609000000    -0.185000000
O     3.738000000   -10.006000000    -1.737000000
H     4.465000000    -9.857000000    -2.342000000
H     3.521000000    -9.136000000    -1.403000000
O     3.958000000    -4.642000000    -3.234000000
H     3.334000000    -4.880000000    -2.548000000
H     3.434000000    -4.172000000    -3.882000000
O     0.031000000    -7.492000000     0.503000000
H     0.184000000    -7.779000000     1.403000000
H     0.851000000    -7.683000000     0.047000000
O     6.730000000    -4.648000000    -3.402000000
H     5.795000000    -4.762000000    -3.233000000
H     6.771000000    -3.968000000    -4.075000000
O    -1.814000000    -9.577000000    -3.418000000
H    -1.396000000    -9.011000000    -4.068000000
H    -1.554000000    -9.206000000    -2.575000000
O    -3.242000000    -8.475000000     0.651000000
H    -2.364000000    -8.478000000     1.034000000
H    -3.120000000    -8.108000000    -0.224000000
O     1.588000000    -7.382000000    -3.266000000
H     2.022000000    -7.864000000    -2.562000000
H     1.269000000    -6.583000000    -2.848000000
O    -0.360000000    -8.029000000    -5.078000000
H    -0.492000000    -7.158000000    -5.451000000
H     0.441000000    -7.949000000    -4.560000000
O     3.442000000    -4.640000000    -7.312000000
H     2.549000000    -4.975000000    -7.238000000
H     3.352000000    -3.824000000    -7.804000000
