215
-1468.87448
C    -1.801000000    -3.632000000     2.786000000
H    -2.836000000    -3.476000000     2.492000000
C    -0.947000000    -2.691000000     3.408000000
C     0.418000000    -2.956000000     3.591000000
H     1.008000000    -2.219000000     4.130000000
C    -1.467000000    -1.223000000     3.649000000
O    -2.934000000    -1.146000000     3.711000000
H    -1.178000000    -0.687000000     2.732000000
O    -0.914000000    -0.604000000     4.890000000
C    -0.368000000     0.589000000     4.596000000
C     0.966000000     0.614000000     4.335000000
H     1.571000000    -0.270000000     4.521000000
C     1.574000000     1.823000000     3.841000000
O     2.935000000     1.747000000     3.560000000
C     0.769000000     3.038000000     3.772000000
C     1.376000000     4.322000000     3.226000000
H     0.716000000     5.173000000     3.406000000
C     1.496000000     4.252000000     1.738000000
C     0.502000000     4.860000000     0.943000000
H    -0.329000000     5.379000000     1.413000000
H     2.365000000     4.567000000     3.619000000
C    -0.610000000     2.943000000     3.972000000
H    -1.229000000     3.786000000     3.678000000
C    -1.193000000     1.720000000     4.412000000
C    -2.687000000     1.628000000     4.674000000
H    -2.946000000     2.663000000     4.909000000
H    -2.973000000     0.985000000     5.508000000
C    -3.399000000     1.193000000     3.426000000
C    -3.995000000     2.144000000     2.594000000
H    -3.899000000     3.193000000     2.861000000
C    -3.486000000    -0.136000000     3.034000000
C    -4.146000000    -0.508000000     1.861000000
H    -4.313000000    -1.542000000     1.570000000
C    -4.454000000     0.488000000     0.993000000
O    -5.000000000     0.035000000    -0.193000000
C    -4.121000000     0.008000000    -1.259000000
C    -4.131000000    -1.297000000    -2.021000000
C    -3.640000000    -1.374000000    -3.346000000
H    -3.235000000    -0.516000000    -3.877000000
C    -4.542000000    -2.495000000    -1.431000000
H    -4.884000000    -2.380000000    -0.405000000
O    -4.422000000     1.120000000    -2.078000000
H    -3.100000000     0.095000000    -0.858000000
C    -4.520000000     1.830000000     1.332000000
C    -4.859000000     2.824000000     0.347000000
H    -4.963000000     3.757000000     0.905000000
H    -5.739000000     2.522000000    -0.224000000
C    -3.747000000     3.023000000    -0.655000000
C    -2.780000000     4.030000000    -0.479000000
H    -2.829000000     4.704000000     0.372000000
C    -3.609000000     2.214000000    -1.861000000
C    -2.599000000     2.475000000    -2.798000000
H    -2.568000000     1.831000000    -3.673000000
C    -1.630000000     3.388000000    -2.526000000
O    -0.487000000     3.435000000    -3.331000000
C     0.677000000     2.740000000    -2.846000000
C     1.391000000     1.914000000    -3.938000000
C     0.668000000     1.381000000    -4.986000000
H    -0.383000000     1.609000000    -5.138000000
C     2.733000000     1.503000000    -3.752000000
H     3.301000000     1.776000000    -2.867000000
O     1.614000000     3.690000000    -2.310000000
H     0.426000000     2.103000000    -1.985000000
C    -1.769000000     4.212000000    -1.368000000
C    -0.713000000     5.395000000    -1.151000000
H    -1.201000000     6.186000000    -0.578000000
H    -0.437000000     5.823000000    -2.117000000
C     0.536000000     4.798000000    -0.436000000
C     1.620000000     4.121000000    -1.026000000
C     2.627000000     3.566000000    -0.291000000
H     3.518000000     3.114000000    -0.718000000
C     2.571000000     3.714000000     1.083000000
O     3.530000000     3.161000000     1.928000000
C     3.333000000     1.794000000     2.239000000
H     2.587000000     1.230000000     1.659000000
C     4.628000000     1.004000000     2.066000000
C     4.748000000    -0.146000000     2.816000000
H     4.072000000    -0.412000000     3.624000000
C     5.437000000     1.191000000     0.875000000
H     5.351000000     2.074000000     0.247000000
C     6.402000000     0.239000000     0.590000000
O     7.216000000     0.449000000    -0.488000000
C     6.655000000    -0.815000000     1.492000000
H     7.343000000    -1.651000000     1.394000000
C     5.776000000    -1.017000000     2.599000000
O     6.077000000    -1.961000000     3.550000000
C     5.107000000    -2.655000000     4.178000000
C     4.223000000    -3.417000000     3.425000000
H     4.197000000    -3.534000000     2.345000000
C     4.968000000    -2.554000000     5.579000000
H     5.746000000    -2.081000000     6.173000000
C     3.932000000    -3.116000000     6.258000000
H     3.830000000    -2.970000000     7.331000000
C     2.929000000    -3.727000000     5.507000000
H     1.996000000    -3.984000000     6.002000000
C     3.115000000    -3.897000000     4.142000000
O     2.180000000    -4.682000000     3.486000000
C     0.904000000    -4.241000000     3.253000000
C     0.052000000    -5.152000000     2.643000000
H     0.410000000    -6.136000000     2.352000000
C    -1.278000000    -4.882000000     2.449000000
O    -2.117000000    -5.877000000     1.933000000
C    -3.395000000    -5.870000000     1.381000000
C    -3.629000000    -5.326000000     0.134000000
H    -2.761000000    -5.122000000    -0.488000000
C    -4.557000000    -6.250000000     2.169000000
H    -4.573000000    -6.529000000     3.220000000
C    -5.864000000    -6.071000000     1.692000000
H    -6.721000000    -6.360000000     2.296000000
C    -6.063000000    -5.655000000     0.393000000
H    -7.062000000    -5.491000000    -0.004000000
C    -4.925000000    -5.250000000    -0.302000000
O    -5.156000000    -4.732000000    -1.519000000
C    -4.555000000    -3.680000000    -2.116000000
C    -4.106000000    -3.770000000    -3.439000000
H    -4.084000000    -4.688000000    -4.020000000
C    -3.660000000    -2.586000000    -4.048000000
O    -3.012000000    -2.821000000    -5.244000000
C    -2.545000000    -1.766000000    -5.995000000
C    -1.258000000    -1.340000000    -6.042000000
H    -0.461000000    -1.744000000    -5.423000000
C    -3.478000000    -1.125000000    -6.852000000
H    -4.499000000    -1.497000000    -6.812000000
C    -3.086000000    -0.105000000    -7.645000000
H    -3.761000000     0.497000000    -8.248000000
C    -1.708000000     0.329000000    -7.674000000
H    -1.357000000     1.089000000    -8.367000000
C    -0.829000000    -0.337000000    -6.897000000
O     0.508000000    -0.009000000    -6.919000000
C     1.286000000     0.548000000    -5.890000000
C     2.577000000     0.204000000    -5.736000000
H     3.012000000    -0.386000000    -6.538000000
C     3.332000000     0.750000000    -4.699000000
O     4.670000000     0.482000000    -4.572000000
C     5.550000000     1.110000000    -3.704000000
C     6.002000000     2.409000000    -3.968000000
H     5.592000000     2.942000000    -4.822000000
C     6.899000000     2.961000000    -3.114000000
H     7.341000000     3.886000000    -3.475000000
C     7.332000000     2.312000000    -1.947000000
H     7.964000000     2.854000000    -1.248000000
C     6.842000000     1.074000000    -1.665000000
C     5.899000000     0.455000000    -2.540000000
H     5.529000000    -0.556000000    -2.392000000
C     1.543000000    -1.381000000    -0.696000000
H     2.466000000    -1.780000000    -1.110000000
C     1.404000000     0.018000000    -0.501000000
H     2.243000000     0.646000000    -0.789000000
C     0.191000000     0.566000000    -0.094000000
H     0.030000000     1.608000000     0.052000000
C    -0.868000000    -0.209000000     0.285000000
H    -1.771000000     0.199000000     0.732000000
C    -0.786000000    -1.632000000     0.115000000
H    -1.684000000    -2.220000000     0.289000000
C     0.441000000    -2.224000000    -0.388000000
C     0.543000000    -3.732000000    -0.601000000
O    -0.428000000    -4.427000000    -0.391000000
O     1.526000000    -4.252000000    -1.120000000
O     3.705000000    -3.461000000    -4.198000000
H     2.766000000    -3.559000000    -4.355000000
H     4.093000000    -3.425000000    -5.072000000
O     0.640000000    -4.113000000    -5.814000000
H    -0.116000000    -3.973000000    -5.243000000
H     0.422000000    -3.644000000    -6.620000000
O     3.223000000    -7.928000000     3.047000000
H     2.661000000    -7.479000000     3.679000000
H     2.928000000    -8.839000000     3.069000000
O     3.958000000    -7.051000000    -4.177000000
H     3.232000000    -6.511000000    -3.863000000
H     4.477000000    -6.461000000    -4.723000000
O    -0.909000000    -4.556000000    -3.133000000
H    -0.727000000    -4.540000000    -2.193000000
H    -1.826000000    -4.821000000    -3.194000000
O    -0.884000000    -6.970000000    -0.929000000
H    -0.667000000    -6.058000000    -0.735000000
H    -0.195000000    -7.477000000    -0.500000000
O    -2.172000000    -8.212000000     3.891000000
H    -1.862000000    -7.377000000     3.540000000
H    -1.877000000    -8.864000000     3.255000000
O     2.459000000    -6.528000000     0.037000000
H     2.530000000    -6.387000000     0.981000000
H     1.954000000    -5.780000000    -0.280000000
O     2.282000000    -8.474000000    -1.892000000
H     2.216000000    -7.708000000    -1.323000000
H     2.556000000    -8.121000000    -2.739000000
O    -2.449000000    -6.845000000    -3.067000000
H    -1.772000000    -6.732000000    -2.400000000
H    -2.229000000    -7.673000000    -3.494000000
O     6.192000000    -5.150000000     0.319000000
H     5.524000000    -4.649000000    -0.150000000
H     6.912000000    -5.233000000    -0.305000000
O     5.669000000    -8.174000000     0.204000000
H     6.188000000    -7.657000000    -0.412000000
H     4.988000000    -7.573000000     0.507000000
O     4.283000000    -4.119000000    -1.530000000
H     3.395000000    -4.077000000    -1.175000000
H     4.161000000    -4.168000000    -2.478000000
O     0.595000000    -9.486000000     0.053000000
H     0.909000000    -9.522000000    -0.850000000
H     1.389000000    -9.389000000     0.579000000
O    -1.366000000    -9.490000000     1.714000000
H    -0.603000000    -9.481000000     1.136000000
H    -1.502000000   -10.416000000     1.917000000
O     6.941000000    -3.656000000    -3.198000000
H     6.176000000    -3.419000000    -2.673000000
H     6.916000000    -3.054000000    -3.942000000
O    -3.397000000    -8.621000000    -0.094000000
H    -3.048000000    -7.840000000    -0.524000000
H    -2.651000000    -8.986000000     0.382000000
O     1.646000000    -5.472000000    -3.407000000
H     1.986000000    -5.023000000    -2.633000000
H     0.734000000    -5.188000000    -3.467000000
O     0.634000000    -7.190000000    -5.593000000
H     0.020000000    -6.585000000    -6.009000000
H     1.053000000    -6.672000000    -4.906000000
