215
-1444.35659
C    -2.663000000    -3.068000000     3.470000000
H    -3.456000000    -2.733000000     2.806000000
C    -1.740000000    -2.183000000     4.054000000
C    -0.576000000    -2.653000000     4.729000000
H     0.185000000    -1.994000000     5.140000000
C    -1.884000000    -0.732000000     3.728000000
O    -3.332000000    -0.465000000     3.526000000
H    -1.349000000    -0.584000000     2.778000000
O    -1.301000000     0.030000000     4.811000000
C    -0.647000000     1.128000000     4.429000000
C     0.765000000     1.095000000     4.485000000
H     1.268000000     0.153000000     4.685000000
C     1.484000000     2.249000000     4.129000000
O     2.759000000     1.975000000     3.817000000
C     0.839000000     3.451000000     3.886000000
C     1.575000000     4.563000000     3.136000000
H     1.035000000     5.483000000     3.371000000
C     1.651000000     4.296000000     1.587000000
C     0.832000000     4.952000000     0.607000000
H    -0.065000000     5.459000000     0.956000000
H     2.602000000     4.689000000     3.486000000
C    -0.536000000     3.478000000     3.973000000
H    -1.086000000     4.371000000     3.687000000
C    -1.302000000     2.374000000     4.222000000
C    -2.843000000     2.421000000     3.981000000
H    -3.260000000     3.429000000     4.033000000
H    -3.261000000     1.984000000     4.891000000
C    -3.395000000     1.822000000     2.757000000
C    -3.776000000     2.671000000     1.665000000
H    -3.536000000     3.715000000     1.849000000
C    -3.670000000     0.464000000     2.616000000
C    -4.183000000    -0.055000000     1.450000000
H    -4.228000000    -1.125000000     1.267000000
C    -4.570000000     0.823000000     0.441000000
O    -4.872000000     0.229000000    -0.713000000
C    -3.812000000     0.165000000    -1.742000000
C    -3.602000000    -1.194000000    -2.373000000
C    -3.233000000    -1.292000000    -3.717000000
H    -3.182000000    -0.370000000    -4.292000000
C    -3.616000000    -2.398000000    -1.626000000
H    -3.868000000    -2.389000000    -0.568000000
O    -4.043000000     1.202000000    -2.749000000
H    -2.931000000     0.458000000    -1.151000000
C    -4.390000000     2.236000000     0.542000000
C    -4.670000000     3.123000000    -0.665000000
H    -4.947000000     4.098000000    -0.261000000
H    -5.578000000     2.733000000    -1.130000000
C    -3.460000000     3.245000000    -1.560000000
C    -2.506000000     4.209000000    -1.307000000
H    -2.583000000     4.848000000    -0.431000000
C    -3.258000000     2.339000000    -2.607000000
C    -2.097000000     2.414000000    -3.360000000
H    -2.028000000     1.748000000    -4.216000000
C    -1.119000000     3.330000000    -3.116000000
O     0.081000000     3.211000000    -3.749000000
C     1.146000000     2.396000000    -3.124000000
C     1.887000000     1.472000000    -4.063000000
C     1.282000000     1.101000000    -5.294000000
H     0.348000000     1.578000000    -5.580000000
C     3.014000000     0.899000000    -3.638000000
H     3.442000000     1.287000000    -2.718000000
O     1.986000000     3.417000000    -2.539000000
H     0.668000000     1.812000000    -2.323000000
C    -1.286000000     4.278000000    -2.049000000
C    -0.152000000     5.226000000    -1.622000000
H    -0.704000000     6.015000000    -1.105000000
H     0.191000000     5.781000000    -2.498000000
C     0.905000000     4.647000000    -0.747000000
C     1.861000000     3.715000000    -1.171000000
C     2.762000000     3.197000000    -0.264000000
H     3.477000000     2.456000000    -0.612000000
C     2.662000000     3.521000000     1.068000000
O     3.587000000     2.825000000     1.855000000
C     3.108000000     1.633000000     2.477000000
H     2.160000000     1.396000000     1.973000000
C     4.059000000     0.392000000     2.252000000
C     3.891000000    -0.792000000     2.959000000
H     2.972000000    -0.986000000     3.506000000
C     5.095000000     0.461000000     1.287000000
H     5.157000000     1.390000000     0.726000000
C     5.886000000    -0.610000000     0.997000000
O     6.966000000    -0.511000000     0.184000000
C     5.756000000    -1.755000000     1.773000000
H     6.288000000    -2.667000000     1.513000000
C     4.761000000    -1.844000000     2.784000000
O     4.524000000    -3.145000000     3.264000000
C     3.891000000    -3.464000000     4.430000000
C     2.570000000    -3.761000000     4.412000000
H     2.007000000    -3.679000000     3.486000000
C     4.599000000    -3.463000000     5.666000000
H     5.651000000    -3.188000000     5.655000000
C     3.949000000    -3.723000000     6.865000000
H     4.554000000    -3.819000000     7.763000000
C     2.600000000    -4.175000000     6.799000000
H     2.052000000    -4.464000000     7.692000000
C     1.930000000    -4.099000000     5.588000000
O     0.663000000    -4.545000000     5.562000000
C    -0.430000000    -4.036000000     4.834000000
C    -1.420000000    -4.897000000     4.469000000
H    -1.296000000    -5.971000000     4.580000000
C    -2.454000000    -4.432000000     3.658000000
O    -3.385000000    -5.333000000     3.132000000
C    -4.163000000    -5.160000000     2.037000000
C    -3.553000000    -5.125000000     0.768000000
H    -2.486000000    -5.191000000     0.571000000
C    -5.394000000    -4.708000000     2.246000000
H    -5.801000000    -4.580000000     3.245000000
C    -6.163000000    -4.281000000     1.161000000
H    -7.175000000    -3.906000000     1.289000000
C    -5.663000000    -4.478000000    -0.139000000
H    -6.320000000    -4.177000000    -0.951000000
C    -4.319000000    -4.874000000    -0.338000000
O    -3.650000000    -4.815000000    -1.541000000
C    -3.479000000    -3.640000000    -2.271000000
C    -3.112000000    -3.675000000    -3.673000000
H    -2.951000000    -4.631000000    -4.164000000
C    -2.988000000    -2.500000000    -4.366000000
O    -2.774000000    -2.544000000    -5.765000000
C    -2.099000000    -1.587000000    -6.498000000
C    -0.701000000    -1.380000000    -6.380000000
H    -0.032000000    -2.002000000    -5.791000000
C    -2.936000000    -0.913000000    -7.402000000
H    -3.955000000    -1.261000000    -7.545000000
C    -2.403000000     0.083000000    -8.210000000
H    -2.988000000     0.737000000    -8.852000000
C    -0.999000000     0.322000000    -8.127000000
H    -0.595000000     1.190000000    -8.643000000
C    -0.165000000    -0.460000000    -7.290000000
O     1.202000000    -0.245000000    -7.284000000
C     1.906000000     0.196000000    -6.179000000
C     3.167000000    -0.307000000    -5.836000000
H     3.731000000    -0.816000000    -6.613000000
C     3.720000000     0.041000000    -4.571000000
O     5.059000000    -0.304000000    -4.293000000
C     5.745000000     0.200000000    -3.205000000
C     6.261000000     1.471000000    -3.351000000
H     6.010000000     1.988000000    -4.274000000
C     6.995000000     2.098000000    -2.287000000
H     7.398000000     3.105000000    -2.365000000
C     7.310000000     1.387000000    -1.136000000
H     7.736000000     1.852000000    -0.251000000
C     6.816000000     0.096000000    -1.068000000
C     6.097000000    -0.572000000    -2.111000000
H     5.886000000    -1.637000000    -2.046000000
C     2.208000000    -1.265000000    -0.565000000
H     3.163000000    -0.935000000    -0.965000000
C     1.340000000    -0.195000000    -0.429000000
H     1.668000000     0.837000000    -0.523000000
C     0.005000000    -0.407000000    -0.019000000
H    -0.644000000     0.419000000     0.160000000
C    -0.398000000    -1.752000000     0.288000000
H    -1.439000000    -2.024000000     0.441000000
C     0.457000000    -2.811000000     0.225000000
H     0.114000000    -3.841000000     0.283000000
C     1.798000000    -2.537000000    -0.179000000
C     2.672000000    -3.741000000    -0.412000000
O     2.508000000    -4.726000000     0.243000000
O     3.617000000    -3.641000000    -1.155000000
O     0.711000000    -7.336000000     5.075000000
H     1.299000000    -6.684000000     5.457000000
H     0.836000000    -7.245000000     4.130000000
O     2.869000000    -6.622000000    -1.509000000
H     3.419000000    -7.179000000    -0.958000000
H     2.599000000    -5.907000000    -0.933000000
O     6.209000000    -7.558000000    -3.682000000
H     7.146000000    -7.443000000    -3.837000000
H     5.807000000    -7.437000000    -4.543000000
O     0.742000000    -8.808000000    -0.316000000
H     1.240000000    -7.995000000    -0.401000000
H     0.776000000    -9.013000000     0.618000000
O     2.217000000    -6.601000000    -4.121000000
H     2.448000000    -6.833000000    -3.222000000
H     2.297000000    -5.648000000    -4.152000000
O     8.106000000    -4.619000000     2.384000000
H     8.464000000    -3.747000000     2.218000000
H     8.076000000    -5.034000000     1.522000000
O     1.879000000    -6.822000000     2.455000000
H     2.134000000    -6.048000000     1.953000000
H     2.537000000    -7.480000000     2.230000000
O     7.350000000    -5.137000000    -0.152000000
H     6.572000000    -4.895000000    -0.654000000
H     7.568000000    -6.018000000    -0.457000000
O     3.551000000    -9.079000000     0.993000000
H     3.630000000   -10.025000000     1.114000000
H     4.036000000    -8.899000000     0.187000000
O     4.608000000    -5.804000000     1.297000000
H     3.997000000    -5.396000000     0.683000000
H     4.666000000    -5.184000000     2.024000000
O     2.395000000    -3.935000000    -3.633000000
H     3.032000000    -3.535000000    -3.041000000
H     1.566000000    -3.507000000    -3.418000000
O     5.385000000    -4.147000000    -5.163000000
H     5.054000000    -4.042000000    -4.271000000
H     4.892000000    -3.509000000    -5.679000000
O     7.458000000    -3.166000000    -3.504000000
H     6.915000000    -3.786000000    -3.017000000
H     7.173000000    -3.261000000    -4.413000000
O    -0.539000000    -9.105000000    -2.770000000
H    -1.244000000    -8.524000000    -3.057000000
H    -0.246000000    -8.734000000    -1.938000000
O     5.491000000    -4.743000000    -2.231000000
H     5.157000000    -5.620000000    -2.419000000
H     4.741000000    -4.274000000    -1.867000000
O     2.899000000    -3.434000000    -6.703000000
H     2.024000000    -3.208000000    -7.018000000
H     2.774000000    -3.645000000    -5.778000000
O     6.115000000    -7.950000000     3.113000000
H     5.189000000    -8.174000000     3.016000000
H     6.261000000    -7.253000000     2.474000000
O    -0.028000000    -2.799000000    -3.025000000
H    -0.844000000    -3.249000000    -2.808000000
H     0.064000000    -2.129000000    -2.347000000
O     4.978000000    -8.417000000    -1.399000000
H     5.136000000    -8.166000000    -2.309000000
H     5.456000000    -9.239000000    -1.291000000
