215
-1444.94840
C    -1.834000000    -2.805000000     3.665000000
H    -2.854000000    -2.621000000     3.339000000
C    -0.992000000    -1.817000000     4.122000000
C     0.297000000    -2.210000000     4.468000000
H     1.010000000    -1.425000000     4.706000000
C    -1.462000000    -0.320000000     4.012000000
O    -2.884000000    -0.163000000     4.269000000
H    -1.269000000     0.008000000     2.980000000
O    -0.709000000     0.580000000     4.856000000
C    -0.175000000     1.735000000     4.261000000
C     1.176000000     1.725000000     4.017000000
H     1.837000000     0.883000000     4.209000000
C     1.683000000     2.795000000     3.319000000
O     3.014000000     2.759000000     2.891000000
C     0.910000000     3.835000000     2.868000000
C     1.478000000     4.977000000     2.002000000
H     0.823000000     5.814000000     2.252000000
C     1.496000000     4.633000000     0.482000000
C     0.456000000     5.075000000    -0.274000000
H    -0.474000000     5.461000000     0.136000000
H     2.483000000     5.190000000     2.372000000
C    -0.461000000     3.853000000     3.260000000
H    -1.084000000     4.702000000     2.991000000
C    -0.982000000     2.764000000     3.954000000
C    -2.443000000     2.634000000     4.301000000
H    -2.812000000     3.632000000     4.546000000
H    -2.571000000     2.123000000     5.257000000
C    -3.237000000     1.986000000     3.191000000
C    -3.741000000     2.676000000     2.103000000
H    -3.582000000     3.750000000     2.159000000
C    -3.474000000     0.608000000     3.287000000
C    -4.121000000    -0.104000000     2.286000000
H    -4.211000000    -1.187000000     2.244000000
C    -4.471000000     0.619000000     1.087000000
O    -4.892000000    -0.040000000    -0.053000000
C    -3.911000000    -0.287000000    -1.035000000
C    -4.005000000    -1.723000000    -1.525000000
C    -3.420000000    -2.043000000    -2.725000000
H    -2.870000000    -1.260000000    -3.242000000
C    -4.699000000    -2.710000000    -0.824000000
H    -5.133000000    -2.485000000     0.147000000
O    -4.258000000     0.555000000    -2.171000000
H    -2.947000000    -0.219000000    -0.509000000
C    -4.376000000     2.010000000     1.040000000
C    -4.741000000     2.682000000    -0.229000000
H    -5.087000000     3.688000000     0.019000000
H    -5.630000000     2.229000000    -0.675000000
C    -3.609000000     2.715000000    -1.282000000
C    -2.839000000     3.860000000    -1.447000000
H    -3.004000000     4.645000000    -0.713000000
C    -3.509000000     1.689000000    -2.266000000
C    -2.505000000     1.826000000    -3.229000000
H    -2.397000000     1.031000000    -3.963000000
C    -1.666000000     2.947000000    -3.241000000
O    -0.700000000     2.853000000    -4.174000000
C     0.553000000     2.450000000    -3.598000000
C     1.315000000     1.307000000    -4.379000000
C     0.590000000     0.676000000    -5.373000000
H    -0.440000000     0.859000000    -5.670000000
C     2.589000000     0.883000000    -4.029000000
H     3.146000000     1.467000000    -3.301000000
O     1.414000000     3.589000000    -3.461000000
H     0.283000000     1.986000000    -2.638000000
C    -1.819000000     4.017000000    -2.361000000
C    -0.915000000     5.166000000    -2.328000000
H    -1.307000000     6.073000000    -1.862000000
H    -0.627000000     5.531000000    -3.317000000
C     0.413000000     4.812000000    -1.585000000
C     1.453000000     4.053000000    -2.167000000
C     2.486000000     3.580000000    -1.400000000
H     3.172000000     2.849000000    -1.821000000
C     2.547000000     3.896000000    -0.050000000
O     3.545000000     3.363000000     0.728000000
C     3.322000000     2.191000000     1.564000000
H     2.531000000     1.561000000     1.131000000
C     4.541000000     1.275000000     1.714000000
C     4.792000000     0.494000000     2.852000000
H     4.046000000     0.461000000     3.642000000
C     5.377000000     1.139000000     0.599000000
H     5.141000000     1.683000000    -0.312000000
C     6.406000000     0.212000000     0.617000000
O     7.235000000    -0.021000000    -0.454000000
C     6.686000000    -0.521000000     1.773000000
H     7.543000000    -1.188000000     1.721000000
C     5.881000000    -0.406000000     2.885000000
O     6.112000000    -1.159000000     4.043000000
C     5.118000000    -1.713000000     4.850000000
C     3.997000000    -2.295000000     4.205000000
H     3.989000000    -2.317000000     3.119000000
C     5.153000000    -1.736000000     6.272000000
H     5.968000000    -1.151000000     6.690000000
C     4.172000000    -2.409000000     7.021000000
H     4.154000000    -2.432000000     8.107000000
C     3.032000000    -2.885000000     6.402000000
H     2.143000000    -3.163000000     6.963000000
C     3.033000000    -2.918000000     5.027000000
O     2.099000000    -3.740000000     4.452000000
C     0.755000000    -3.524000000     4.298000000
C    -0.082000000    -4.482000000     3.798000000
H     0.280000000    -5.503000000     3.712000000
C    -1.427000000    -4.225000000     3.537000000
O    -2.299000000    -5.260000000     3.044000000
C    -3.561000000    -5.112000000     2.556000000
C    -3.810000000    -5.250000000     1.209000000
H    -3.038000000    -5.484000000     0.480000000
C    -4.537000000    -4.951000000     3.434000000
H    -4.333000000    -4.725000000     4.478000000
C    -5.829000000    -4.855000000     2.898000000
H    -6.548000000    -4.644000000     3.685000000
C    -6.107000000    -5.002000000     1.574000000
H    -7.114000000    -4.856000000     1.193000000
C    -5.078000000    -5.202000000     0.683000000
O    -5.365000000    -5.046000000    -0.622000000
C    -4.790000000    -4.034000000    -1.334000000
C    -4.207000000    -4.308000000    -2.560000000
H    -4.315000000    -5.294000000    -3.004000000
C    -3.511000000    -3.338000000    -3.289000000
O    -3.025000000    -3.742000000    -4.537000000
C    -2.633000000    -2.892000000    -5.581000000
C    -1.347000000    -2.408000000    -5.661000000
H    -0.612000000    -2.662000000    -4.902000000
C    -3.452000000    -2.905000000    -6.737000000
H    -4.459000000    -3.289000000    -6.592000000
C    -2.987000000    -2.226000000    -7.909000000
H    -3.594000000    -2.194000000    -8.810000000
C    -1.683000000    -1.724000000    -7.964000000
H    -1.323000000    -1.188000000    -8.839000000
C    -0.878000000    -1.740000000    -6.811000000
O     0.461000000    -1.247000000    -6.895000000
C     1.130000000    -0.470000000    -5.943000000
C     2.376000000    -0.917000000    -5.623000000
H     2.750000000    -1.870000000    -5.988000000
C     3.157000000    -0.238000000    -4.658000000
O     4.310000000    -0.800000000    -4.267000000
C     5.408000000    -0.108000000    -3.654000000
C     5.968000000     0.949000000    -4.405000000
H     5.851000000     1.057000000    -5.480000000
C     7.050000000     1.618000000    -3.757000000
H     7.514000000     2.445000000    -4.289000000
C     7.317000000     1.412000000    -2.373000000
H     8.022000000     2.100000000    -1.913000000
C     6.870000000     0.258000000    -1.769000000
C     5.826000000    -0.447000000    -2.369000000
H     5.378000000    -1.323000000    -1.906000000
C     2.015000000    -1.553000000     0.170000000
H     2.979000000    -2.022000000     0.348000000
C     1.499000000    -0.661000000     1.134000000
H     2.023000000    -0.631000000     2.086000000
C     0.454000000     0.139000000     0.814000000
H     0.212000000     1.111000000     1.456000000
C    -0.156000000     0.076000000    -0.462000000
H    -0.962000000     0.698000000    -0.841000000
C     0.219000000    -0.953000000    -1.319000000
H    -0.302000000    -1.105000000    -2.260000000
C     1.347000000    -1.752000000    -1.041000000
C     1.791000000    -2.871000000    -1.949000000
O     1.044000000    -3.230000000    -2.835000000
O     2.866000000    -3.493000000    -1.797000000
O     0.776000000    -9.185000000    -5.160000000
H     0.736000000    -8.372000000    -4.655000000
H     1.086000000    -8.914000000    -6.025000000
O     5.823000000    -6.763000000     0.742000000
H     5.083000000    -6.185000000     0.557000000
H     5.942000000    -6.702000000     1.690000000
O     5.145000000    -4.054000000    -2.939000000
H     4.302000000    -3.711000000    -2.643000000
H     5.675000000    -4.106000000    -2.143000000
O     2.069000000    -6.597000000     1.709000000
H     1.864000000    -7.530000000     1.764000000
H     2.374000000    -6.366000000     2.586000000
O     2.173000000    -3.070000000    -8.604000000
H     1.726000000    -3.138000000    -7.760000000
H     2.066000000    -3.935000000    -9.001000000
O     6.749000000    -2.886000000    -4.993000000
H     7.470000000    -2.313000000    -4.732000000
H     6.298000000    -3.090000000    -4.174000000
O     5.234000000    -6.827000000    -6.892000000
H     4.922000000    -6.203000000    -6.237000000
H     4.514000000    -6.898000000    -7.518000000
O     1.603000000    -4.244000000    -5.270000000
H     1.177000000    -3.637000000    -4.666000000
H     2.058000000    -4.867000000    -4.702000000
O     2.064000000    -6.047000000    -2.269000000
H     1.151000000    -6.245000000    -2.479000000
H     2.112000000    -5.091000000    -2.290000000
O     3.869000000    -4.952000000     0.268000000
H     3.745000000    -4.370000000    -0.482000000
H     3.107000000    -5.530000000     0.250000000
O     3.951000000    -7.890000000    -2.804000000
H     4.559000000    -7.441000000    -3.391000000
H     3.340000000    -7.208000000    -2.525000000
O    -0.400000000    -4.935000000    -7.261000000
H    -0.713000000    -4.031000000    -7.230000000
H     0.100000000    -5.044000000    -6.452000000
O    -1.080000000    -4.790000000    -1.842000000
H    -0.359000000    -4.243000000    -2.155000000
H    -1.819000000    -4.187000000    -1.759000000
O     5.385000000    -4.738000000     2.542000000
H     6.170000000    -4.622000000     2.007000000
H     4.673000000    -4.820000000     1.907000000
O     6.985000000    -3.754000000    -0.951000000
H     7.137000000    -3.770000000    -0.006000000
H     7.817000000    -3.462000000    -1.323000000
O    -0.488000000    -6.970000000    -0.408000000
H    -0.543000000    -6.168000000    -0.927000000
H     0.329000000    -6.882000000     0.083000000
O     7.157000000    -5.769000000    -4.115000000
H     6.380000000    -5.357000000    -3.736000000
H     7.707000000    -5.036000000    -4.390000000
O    -0.688000000    -6.736000000    -4.091000000
H    -0.507000000    -5.893000000    -4.507000000
H    -1.276000000    -6.525000000    -3.366000000
O     4.133000000    -5.411000000    -5.015000000
H     4.447000000    -4.849000000    -4.307000000
H     3.752000000    -4.806000000    -5.651000000
