215
-1457.14577
C    -0.852000000    -4.023000000     3.676000000
H    -1.847000000    -3.941000000     3.247000000
C    -0.229000000    -2.878000000     4.128000000
C     1.114000000    -2.985000000     4.383000000
H     1.709000000    -2.083000000     4.494000000
C    -0.805000000    -1.462000000     4.048000000
O    -2.238000000    -1.626000000     4.135000000
H    -0.467000000    -1.097000000     3.068000000
O    -0.348000000    -0.525000000     5.097000000
C    -0.093000000     0.758000000     4.670000000
C     1.213000000     1.138000000     4.339000000
H     2.023000000     0.414000000     4.371000000
C     1.433000000     2.368000000     3.722000000
O     2.742000000     2.641000000     3.205000000
C     0.381000000     3.253000000     3.512000000
C     0.602000000     4.679000000     2.854000000
H    -0.099000000     5.376000000     3.319000000
C     0.534000000     4.715000000     1.372000000
C    -0.687000000     5.073000000     0.714000000
H    -1.555000000     5.375000000     1.295000000
H     1.577000000     5.105000000     3.103000000
C    -0.947000000     2.855000000     3.834000000
H    -1.774000000     3.530000000     3.633000000
C    -1.190000000     1.594000000     4.369000000
C    -2.604000000     1.192000000     4.825000000
H    -3.127000000     2.098000000     5.138000000
H    -2.467000000     0.608000000     5.738000000
C    -3.243000000     0.483000000     3.629000000
C    -3.874000000     1.241000000     2.655000000
H    -3.993000000     2.319000000     2.728000000
C    -3.045000000    -0.891000000     3.347000000
C    -3.628000000    -1.509000000     2.252000000
H    -3.570000000    -2.565000000     2.004000000
C    -4.375000000    -0.763000000     1.396000000
O    -4.728000000    -1.383000000     0.203000000
C    -3.902000000    -1.042000000    -0.972000000
C    -3.573000000    -2.303000000    -1.792000000
C    -3.452000000    -2.269000000    -3.203000000
H    -3.719000000    -1.345000000    -3.710000000
C    -3.178000000    -3.444000000    -1.102000000
H    -3.133000000    -3.352000000    -0.020000000
O    -4.527000000    -0.019000000    -1.751000000
H    -2.959000000    -0.634000000    -0.578000000
C    -4.542000000     0.619000000     1.608000000
C    -5.353000000     1.457000000     0.614000000
H    -5.849000000     2.245000000     1.183000000
H    -6.093000000     0.755000000     0.224000000
C    -4.311000000     2.024000000    -0.471000000
C    -3.672000000     3.297000000    -0.401000000
H    -3.794000000     4.007000000     0.413000000
C    -4.037000000     1.251000000    -1.567000000
C    -3.389000000     1.760000000    -2.656000000
H    -3.195000000     1.048000000    -3.453000000
C    -2.696000000     2.964000000    -2.554000000
O    -1.690000000     3.196000000    -3.486000000
C    -0.320000000     2.946000000    -3.153000000
C     0.468000000     2.310000000    -4.240000000
C    -0.141000000     1.393000000    -5.041000000
H    -1.201000000     1.170000000    -4.946000000
C     1.831000000     2.530000000    -4.288000000
H     2.303000000     3.198000000    -3.572000000
O     0.256000000     4.148000000    -2.789000000
H    -0.208000000     2.247000000    -2.311000000
C    -2.902000000     3.756000000    -1.434000000
C    -2.125000000     5.071000000    -1.316000000
H    -2.669000000     5.887000000    -0.836000000
H    -1.880000000     5.515000000    -2.283000000
C    -0.794000000     4.845000000    -0.645000000
C     0.288000000     4.383000000    -1.421000000
C     1.508000000     4.137000000    -0.792000000
H     2.377000000     3.904000000    -1.403000000
C     1.666000000     4.263000000     0.629000000
O     2.874000000     3.909000000     1.242000000
C     2.823000000     2.511000000     1.777000000
H     1.906000000     1.985000000     1.472000000
C     3.952000000     1.581000000     1.319000000
C     4.502000000     0.583000000     2.205000000
H     3.943000000     0.435000000     3.126000000
C     4.623000000     1.742000000     0.106000000
H     4.385000000     2.650000000    -0.442000000
C     5.751000000     1.068000000    -0.242000000
O     6.476000000     1.406000000    -1.372000000
C     6.229000000     0.040000000     0.573000000
H     7.063000000    -0.555000000     0.209000000
C     5.615000000    -0.214000000     1.802000000
O     6.235000000    -1.248000000     2.556000000
C     5.662000000    -1.670000000     3.731000000
C     4.833000000    -2.762000000     3.630000000
H     4.719000000    -3.164000000     2.626000000
C     5.800000000    -1.080000000     4.956000000
H     6.395000000    -0.170000000     4.965000000
C     5.169000000    -1.635000000     6.042000000
H     5.356000000    -1.245000000     7.039000000
C     4.329000000    -2.730000000     5.928000000
H     3.836000000    -3.148000000     6.801000000
C     4.059000000    -3.254000000     4.672000000
O     3.208000000    -4.343000000     4.559000000
C     1.846000000    -4.190000000     4.327000000
C     1.165000000    -5.341000000     4.006000000
H     1.738000000    -6.265000000     4.020000000
C    -0.154000000    -5.230000000     3.593000000
O    -0.859000000    -6.384000000     3.264000000
C    -1.918000000    -6.467000000     2.352000000
C    -1.703000000    -6.316000000     1.011000000
H    -0.700000000    -6.035000000     0.699000000
C    -3.200000000    -6.703000000     2.817000000
H    -3.369000000    -6.956000000     3.861000000
C    -4.363000000    -6.679000000     2.008000000
H    -5.365000000    -6.800000000     2.412000000
C    -4.094000000    -6.354000000     0.660000000
H    -4.917000000    -6.178000000    -0.028000000
C    -2.787000000    -6.074000000     0.194000000
O    -2.579000000    -5.859000000    -1.146000000
C    -2.860000000    -4.638000000    -1.817000000
C    -2.716000000    -4.568000000    -3.212000000
H    -2.292000000    -5.370000000    -3.810000000
C    -3.043000000    -3.428000000    -3.904000000
O    -3.019000000    -3.479000000    -5.291000000
C    -2.765000000    -2.397000000    -6.061000000
C    -1.440000000    -1.869000000    -6.242000000
H    -0.628000000    -2.398000000    -5.750000000
C    -3.840000000    -1.707000000    -6.647000000
H    -4.805000000    -2.194000000    -6.531000000
C    -3.673000000    -0.511000000    -7.283000000
H    -4.546000000     0.095000000    -7.507000000
C    -2.380000000     0.063000000    -7.356000000
H    -2.227000000     1.049000000    -7.788000000
C    -1.303000000    -0.656000000    -6.808000000
O    -0.026000000    -0.094000000    -6.975000000
C     0.573000000     0.801000000    -6.079000000
C     1.952000000     1.025000000    -6.162000000
H     2.592000000     0.491000000    -6.860000000
C     2.575000000     1.907000000    -5.245000000
O     3.895000000     2.037000000    -5.345000000
C     4.762000000     2.518000000    -4.449000000
C     5.376000000     3.753000000    -4.648000000
H     4.990000000     4.399000000    -5.433000000
C     6.366000000     4.199000000    -3.745000000
H     6.820000000     5.183000000    -3.826000000
C     6.722000000     3.412000000    -2.674000000
H     7.482000000     3.690000000    -1.949000000
C     6.021000000     2.245000000    -2.381000000
C     5.155000000     1.775000000    -3.299000000
H     4.817000000     0.744000000    -3.229000000
C     2.363000000    -0.786000000    -0.127000000
H     3.341000000    -1.073000000     0.250000000
C     1.429000000    -0.299000000     0.887000000
H     1.676000000    -0.163000000     1.937000000
C     0.218000000     0.153000000     0.459000000
H    -0.527000000     0.550000000     1.181000000
C    -0.072000000     0.179000000    -0.894000000
H    -1.031000000     0.567000000    -1.229000000
C     0.870000000    -0.205000000    -1.857000000
H     0.640000000    -0.061000000    -2.910000000
C     2.047000000    -0.772000000    -1.443000000
C     3.070000000    -1.439000000    -2.394000000
O     2.790000000    -1.574000000    -3.581000000
O     4.078000000    -1.976000000    -1.954000000
O     2.864000000    -5.430000000    -7.964000000
H     3.438000000    -4.761000000    -7.593000000
H     2.299000000    -5.691000000    -7.237000000
O     6.594000000    -1.090000000    -3.161000000
H     5.729000000    -1.335000000    -2.831000000
H     6.778000000    -0.247000000    -2.748000000
O     5.070000000    -3.017000000    -7.275000000
H     5.698000000    -2.301000000    -7.183000000
H     4.572000000    -3.005000000    -6.457000000
O     7.820000000    -3.123000000     1.153000000
H     6.981000000    -3.163000000     0.694000000
H     7.620000000    -3.411000000     2.043000000
O     2.632000000    -4.549000000    -2.051000000
H     3.297000000    -3.863000000    -2.112000000
H     2.032000000    -4.240000000    -1.372000000
O     0.916000000    -5.408000000    -5.934000000
H     0.852000000    -4.453000000    -5.904000000
H     1.089000000    -5.665000000    -5.029000000
O     5.400000000     1.202000000    -7.685000000
H     5.445000000     2.061000000    -8.104000000
H     4.925000000     1.357000000    -6.869000000
O     1.906000000    -2.630000000    -5.748000000
H     1.652000000    -1.884000000    -6.291000000
H     2.351000000    -2.239000000    -4.996000000
O     2.378000000    -6.778000000    -3.677000000
H     2.509000000    -6.028000000    -3.097000000
H     2.199000000    -7.510000000    -3.086000000
O     8.364000000     1.489000000    -6.973000000
H     8.453000000     0.916000000    -7.735000000
H     8.121000000     0.901000000    -6.258000000
O     5.949000000    -6.512000000    -3.649000000
H     6.733000000    -6.028000000    -3.391000000
H     6.105000000    -6.749000000    -4.564000000
O     7.680000000    -6.393000000    -0.214000000
H     8.453000000    -6.899000000    -0.465000000
H     7.703000000    -5.623000000    -0.783000000
O     5.661000000    -7.909000000    -1.382000000
H     5.889000000    -7.487000000    -2.210000000
H     6.266000000    -7.528000000    -0.745000000
O     5.656000000    -3.654000000    -0.668000000
H     5.145000000    -2.850000000    -0.767000000
H     6.045000000    -3.798000000    -1.530000000
O     7.091000000    -3.925000000    -5.069000000
H     6.185000000    -4.167000000    -4.874000000
H     7.102000000    -2.970000000    -5.013000000
O     4.610000000    -3.316000000    -4.426000000
H     4.306000000    -2.551000000    -3.938000000
H     4.439000000    -4.056000000    -3.843000000
O     7.648000000    -4.596000000    -2.444000000
H     8.559000000    -4.829000000    -2.266000000
H     7.673000000    -4.165000000    -3.298000000
O     3.615000000    -7.738000000     0.775000000
H     4.427000000    -7.280000000     0.993000000
H     3.430000000    -7.480000000    -0.128000000
O     6.637000000    -0.867000000    -6.366000000
H     6.367000000    -0.051000000    -6.787000000
H     6.714000000    -0.643000000    -5.438000000
