215
-1460.19824
C    -0.631000000    -4.500000000     1.810000000
H    -1.704000000    -4.494000000     1.635000000
C    -0.145000000    -3.567000000     2.732000000
C     1.237000000    -3.476000000     2.941000000
H     1.669000000    -2.767000000     3.643000000
C    -1.051000000    -2.454000000     3.292000000
O    -2.482000000    -2.791000000     3.607000000
H    -1.003000000    -1.695000000     2.498000000
O    -0.532000000    -1.772000000     4.432000000
C    -0.361000000    -0.372000000     4.346000000
C     0.914000000     0.144000000     4.250000000
H     1.704000000    -0.590000000     4.115000000
C     1.113000000     1.476000000     4.169000000
O     2.371000000     1.849000000     3.721000000
C     0.040000000     2.371000000     4.210000000
C     0.189000000     3.908000000     4.086000000
H    -0.554000000     4.543000000     4.573000000
C     0.197000000     4.336000000     2.614000000
C    -1.074000000     4.608000000     1.989000000
H    -1.963000000     4.681000000     2.611000000
H     1.156000000     4.126000000     4.543000000
C    -1.224000000     1.866000000     4.438000000
H    -2.106000000     2.500000000     4.399000000
C    -1.493000000     0.519000000     4.507000000
C    -2.877000000    -0.026000000     4.737000000
H    -3.505000000     0.734000000     5.205000000
H    -2.790000000    -0.851000000     5.447000000
C    -3.509000000    -0.620000000     3.478000000
C    -4.273000000     0.299000000     2.723000000
H    -4.464000000     1.275000000     3.161000000
C    -3.373000000    -1.935000000     3.059000000
C    -3.998000000    -2.315000000     1.826000000
H    -3.775000000    -3.245000000     1.310000000
C    -4.687000000    -1.400000000     1.058000000
O    -5.047000000    -1.763000000    -0.229000000
C    -4.120000000    -1.343000000    -1.351000000
C    -3.867000000    -2.368000000    -2.453000000
C    -3.466000000    -1.958000000    -3.698000000
H    -3.064000000    -0.968000000    -3.895000000
C    -4.277000000    -3.688000000    -2.302000000
H    -4.554000000    -4.033000000    -1.309000000
O    -4.479000000    -0.032000000    -1.904000000
H    -3.158000000    -1.164000000    -0.849000000
C    -4.848000000    -0.058000000     1.534000000
C    -5.471000000     1.048000000     0.765000000
H    -5.865000000     1.781000000     1.473000000
H    -6.316000000     0.613000000     0.228000000
C    -4.440000000     1.663000000    -0.157000000
C    -3.844000000     2.866000000     0.211000000
H    -4.207000000     3.302000000     1.138000000
C    -4.001000000     1.125000000    -1.345000000
C    -3.040000000     1.817000000    -2.097000000
H    -2.809000000     1.372000000    -3.062000000
C    -2.522000000     3.054000000    -1.776000000
O    -1.560000000     3.657000000    -2.542000000
C    -0.204000000     3.451000000    -2.019000000
C     0.727000000     3.059000000    -3.228000000
C     0.192000000     2.202000000    -4.179000000
H    -0.784000000     1.741000000    -4.054000000
C     2.068000000     3.438000000    -3.281000000
H     2.439000000     4.114000000    -2.516000000
O     0.178000000     4.710000000    -1.473000000
H    -0.322000000     2.651000000    -1.274000000
C    -2.972000000     3.594000000    -0.603000000
C    -2.344000000     4.904000000    -0.142000000
H    -3.018000000     5.373000000     0.579000000
H    -2.174000000     5.744000000    -0.819000000
C    -1.061000000     4.767000000     0.618000000
C     0.170000000     4.837000000    -0.065000000
C     1.345000000     4.492000000     0.523000000
H     2.295000000     4.490000000    -0.005000000
C     1.350000000     4.221000000     1.867000000
O     2.541000000     3.823000000     2.422000000
C     2.738000000     2.420000000     2.479000000
H     2.133000000     1.963000000     1.683000000
C     4.137000000     1.958000000     2.164000000
C     4.649000000     0.748000000     2.736000000
H     4.061000000     0.170000000     3.445000000
C     4.861000000     2.543000000     1.136000000
H     4.307000000     3.206000000     0.477000000
C     6.149000000     2.032000000     0.747000000
O     6.948000000     2.639000000    -0.248000000
C     6.653000000     0.946000000     1.406000000
H     7.683000000     0.653000000     1.221000000
C     5.932000000     0.308000000     2.432000000
O     6.515000000    -0.634000000     3.185000000
C     5.782000000    -1.708000000     3.666000000
C     5.088000000    -2.470000000     2.790000000
H     5.093000000    -2.200000000     1.737000000
C     5.672000000    -1.984000000     5.051000000
H     6.188000000    -1.278000000     5.697000000
C     4.816000000    -2.947000000     5.487000000
H     4.831000000    -3.243000000     6.533000000
C     4.100000000    -3.709000000     4.579000000
H     3.487000000    -4.530000000     4.942000000
C     4.257000000    -3.490000000     3.217000000
O     3.557000000    -4.252000000     2.304000000
C     2.147000000    -4.292000000     2.219000000
C     1.655000000    -5.259000000     1.368000000
H     2.331000000    -5.863000000     0.769000000
C     0.304000000    -5.357000000     1.117000000
O    -0.128000000    -6.114000000     0.096000000
C    -1.427000000    -6.381000000    -0.151000000
C    -1.990000000    -5.957000000    -1.398000000
H    -1.481000000    -5.281000000    -2.080000000
C    -2.080000000    -7.325000000     0.613000000
H    -1.566000000    -7.797000000     1.447000000
C    -3.349000000    -7.798000000     0.288000000
H    -3.803000000    -8.528000000     0.953000000
C    -3.967000000    -7.385000000    -0.936000000
H    -4.920000000    -7.774000000    -1.285000000
C    -3.290000000    -6.427000000    -1.710000000
O    -3.832000000    -6.015000000    -2.873000000
C    -3.892000000    -4.656000000    -3.264000000
C    -3.559000000    -4.185000000    -4.538000000
H    -3.444000000    -4.868000000    -5.375000000
C    -3.428000000    -2.850000000    -4.774000000
O    -3.013000000    -2.446000000    -6.041000000
C    -2.482000000    -1.208000000    -6.270000000
C    -1.156000000    -0.937000000    -5.988000000
H    -0.551000000    -1.766000000    -5.628000000
C    -3.369000000    -0.232000000    -6.751000000
H    -4.418000000    -0.290000000    -7.028000000
C    -2.871000000     1.084000000    -6.960000000
H    -3.511000000     1.952000000    -7.097000000
C    -1.559000000     1.338000000    -6.714000000
H    -1.196000000     2.329000000    -6.977000000
C    -0.685000000     0.367000000    -6.277000000
O     0.626000000     0.686000000    -6.104000000
C     1.045000000     1.691000000    -5.254000000
C     2.391000000     2.029000000    -5.183000000
H     3.160000000     1.567000000    -5.796000000
C     2.910000000     2.817000000    -4.185000000
O     4.258000000     2.811000000    -4.183000000
C     4.999000000     3.533000000    -3.253000000
C     5.090000000     4.957000000    -3.218000000
H     4.443000000     5.506000000    -3.898000000
C     5.972000000     5.554000000    -2.342000000
H     6.110000000     6.632000000    -2.380000000
C     6.641000000     4.816000000    -1.353000000
H     7.240000000     5.280000000    -0.573000000
C     6.414000000     3.436000000    -1.287000000
C     5.652000000     2.842000000    -2.286000000
H     5.503000000     1.771000000    -2.179000000
C     2.183000000    -2.113000000    -0.182000000
H     3.059000000    -2.736000000    -0.022000000
C     1.920000000    -1.090000000     0.762000000
H     2.604000000    -0.883000000     1.582000000
C     0.785000000    -0.249000000     0.590000000
H     0.637000000     0.651000000     1.203000000
C    -0.061000000    -0.555000000    -0.416000000
H    -0.932000000     0.081000000    -0.549000000
C     0.137000000    -1.558000000    -1.309000000
H    -0.628000000    -1.707000000    -2.066000000
C     1.314000000    -2.336000000    -1.263000000
C     1.712000000    -3.341000000    -2.351000000
O     0.810000000    -3.769000000    -3.015000000
O     2.886000000    -3.665000000    -2.537000000
O    -0.152000000    -4.836000000    -5.309000000
H     0.602000000    -4.602000000    -5.849000000
H     0.087000000    -4.548000000    -4.427000000
O     2.026000000    -5.496000000    -8.971000000
H     1.730000000    -6.334000000    -9.324000000
H     2.195000000    -5.672000000    -8.045000000
O     2.267000000    -7.935000000    -4.499000000
H     3.204000000    -8.045000000    -4.335000000
H     1.961000000    -7.387000000    -3.777000000
O     6.106000000    -5.665000000     0.548000000
H     5.775000000    -5.432000000     1.415000000
H     5.320000000    -5.836000000     0.029000000
O     6.353000000    -0.547000000    -3.875000000
H     6.556000000     0.325000000    -4.214000000
H     5.424000000    -0.506000000    -3.648000000
O     0.614000000    -9.782000000    -2.264000000
H     0.995000000    -9.105000000    -2.824000000
H    -0.297000000    -9.847000000    -2.553000000
O     4.145000000    -6.750000000    -1.273000000
H     3.271000000    -6.421000000    -1.480000000
H     4.207000000    -7.580000000    -1.745000000
O    -1.584000000    -7.351000000    -5.067000000
H    -2.134000000    -7.043000000    -4.347000000
H    -0.993000000    -6.620000000    -5.248000000
O     1.930000000    -2.760000000    -5.504000000
H     1.903000000    -2.669000000    -4.551000000
H     2.750000000    -2.339000000    -5.761000000
O     1.508000000    -6.387000000    -2.304000000
H     1.674000000    -5.479000000    -2.557000000
H     0.730000000    -6.342000000    -1.747000000
O     4.644000000    -2.248000000    -5.815000000
H     5.032000000    -2.528000000    -4.986000000
H     5.367000000    -2.281000000    -6.441000000
O     5.518000000    -3.525000000    -1.968000000
H     4.623000000    -3.470000000    -2.304000000
H     5.473000000    -4.181000000    -1.273000000
O     4.069000000    -5.597000000    -4.003000000
H     4.613000000    -5.640000000    -3.217000000
H     3.375000000    -4.976000000    -3.780000000
O     2.828000000    -5.252000000    -6.374000000
H     3.122000000    -4.343000000    -6.329000000
H     3.326000000    -5.700000000    -5.690000000
O     2.203000000    -0.587000000    -8.106000000
H     1.938000000    -0.495000000    -7.191000000
H     2.315000000     0.313000000    -8.415000000
O    -1.781000000    -4.714000000    -7.592000000
H    -1.867000000    -3.761000000    -7.622000000
H    -1.129000000    -4.875000000    -6.910000000
O     0.520000000    -2.692000000    -7.889000000
H     0.844000000    -2.863000000    -7.005000000
H     1.310000000    -2.583000000    -8.417000000
O     3.643000000    -0.527000000    -3.029000000
H     3.409000000    -1.352000000    -2.606000000
H     3.499000000     0.138000000    -2.356000000
O     8.163000000    -2.203000000    -2.943000000
H     7.546000000    -2.851000000    -2.603000000
H     7.611000000    -1.491000000    -3.265000000
