215
-1435.36171
C    -2.121000000    -2.924000000     3.916000000
H    -3.145000000    -2.853000000     3.558000000
C    -1.238000000    -1.818000000     3.945000000
C     0.030000000    -2.022000000     4.547000000
H     0.713000000    -1.179000000     4.604000000
C    -1.694000000    -0.394000000     3.586000000
O    -3.151000000    -0.229000000     3.495000000
H    -1.192000000    -0.035000000     2.675000000
O    -1.165000000     0.516000000     4.574000000
C    -0.698000000     1.756000000     4.121000000
C     0.693000000     1.831000000     4.044000000
H     1.293000000     1.110000000     4.595000000
C     1.325000000     2.837000000     3.341000000
O     2.704000000     2.759000000     3.208000000
C     0.573000000     3.861000000     2.773000000
C     1.201000000     5.072000000     2.025000000
H     0.681000000     6.014000000     2.210000000
C     1.471000000     4.685000000     0.507000000
C     0.542000000     4.962000000    -0.468000000
H    -0.344000000     5.530000000    -0.197000000
H     2.221000000     5.338000000     2.308000000
C    -0.846000000     3.821000000     2.901000000
H    -1.465000000     4.660000000     2.594000000
C    -1.495000000     2.721000000     3.520000000
C    -3.029000000     2.675000000     3.693000000
H    -3.409000000     3.692000000     3.814000000
H    -3.197000000     2.100000000     4.606000000
C    -3.639000000     1.916000000     2.483000000
C    -4.142000000     2.671000000     1.448000000
H    -4.068000000     3.755000000     1.487000000
C    -3.606000000     0.521000000     2.415000000
C    -4.290000000    -0.159000000     1.382000000
H    -4.398000000    -1.240000000     1.370000000
C    -4.632000000     0.663000000     0.357000000
O    -4.976000000    -0.024000000    -0.718000000
C    -3.994000000    -0.313000000    -1.641000000
C    -4.104000000    -1.764000000    -2.080000000
C    -4.105000000    -2.143000000    -3.426000000
H    -4.092000000    -1.386000000    -4.206000000
C    -3.847000000    -2.800000000    -1.162000000
H    -3.778000000    -2.601000000    -0.095000000
O    -4.122000000     0.556000000    -2.815000000
H    -3.004000000    -0.159000000    -1.188000000
C    -4.592000000     2.056000000     0.302000000
C    -4.840000000     2.801000000    -1.031000000
H    -5.100000000     3.859000000    -0.956000000
H    -5.670000000     2.469000000    -1.659000000
C    -3.619000000     2.775000000    -1.950000000
C    -2.716000000     3.830000000    -1.925000000
H    -2.918000000     4.723000000    -1.339000000
C    -3.354000000     1.681000000    -2.751000000
C    -2.302000000     1.593000000    -3.596000000
H    -2.284000000     0.827000000    -4.367000000
C    -1.346000000     2.650000000    -3.525000000
O    -0.200000000     2.500000000    -4.265000000
C     0.916000000     2.002000000    -3.541000000
C     1.595000000     0.788000000    -4.062000000
C     0.946000000    -0.079000000    -4.874000000
H    -0.030000000     0.130000000    -5.305000000
C     2.850000000     0.454000000    -3.612000000
H     3.247000000     1.175000000    -2.902000000
O     1.862000000     3.103000000    -3.339000000
H     0.620000000     1.759000000    -2.510000000
C    -1.615000000     3.791000000    -2.740000000
C    -0.537000000     4.899000000    -2.637000000
H    -0.913000000     5.832000000    -2.211000000
H    -0.291000000     5.265000000    -3.636000000
C     0.707000000     4.537000000    -1.786000000
C     1.779000000     3.759000000    -2.105000000
C     2.802000000     3.534000000    -1.198000000
H     3.663000000     2.962000000    -1.534000000
C     2.655000000     3.980000000     0.138000000
O     3.514000000     3.576000000     1.120000000
C     3.162000000     2.394000000     1.878000000
H     2.386000000     1.790000000     1.385000000
C     4.316000000     1.460000000     1.955000000
C     4.442000000     0.539000000     2.968000000
H     3.624000000     0.472000000     3.681000000
C     5.326000000     1.474000000     1.035000000
H     5.141000000     2.120000000     0.181000000
C     6.413000000     0.645000000     1.151000000
O     7.328000000     0.570000000     0.151000000
C     6.519000000    -0.260000000     2.156000000
H     7.362000000    -0.934000000     2.287000000
C     5.489000000    -0.383000000     3.113000000
O     5.524000000    -1.389000000     4.039000000
C     4.455000000    -1.589000000     5.062000000
C     3.433000000    -2.495000000     4.829000000
H     3.281000000    -2.985000000     3.871000000
C     4.668000000    -1.220000000     6.382000000
H     5.414000000    -0.463000000     6.613000000
C     3.740000000    -1.433000000     7.407000000
H     3.919000000    -0.971000000     8.374000000
C     2.646000000    -2.218000000     7.099000000
H     1.790000000    -2.234000000     7.768000000
C     2.538000000    -2.785000000     5.829000000
O     1.491000000    -3.638000000     5.635000000
C     0.324000000    -3.248000000     5.091000000
C    -0.494000000    -4.370000000     4.967000000
H    -0.151000000    -5.350000000     5.287000000
C    -1.758000000    -4.168000000     4.384000000
O    -2.535000000    -5.252000000     4.111000000
C    -3.275000000    -5.242000000     2.977000000
C    -2.713000000    -5.170000000     1.716000000
H    -1.653000000    -5.070000000     1.498000000
C    -4.702000000    -5.483000000     3.120000000
H    -5.193000000    -5.545000000     4.088000000
C    -5.512000000    -5.596000000     1.954000000
H    -6.567000000    -5.847000000     2.021000000
C    -4.973000000    -5.427000000     0.686000000
H    -5.634000000    -5.399000000    -0.177000000
C    -3.592000000    -5.194000000     0.563000000
O    -3.127000000    -5.016000000    -0.717000000
C    -3.650000000    -4.121000000    -1.624000000
C    -3.847000000    -4.520000000    -2.939000000
H    -3.821000000    -5.548000000    -3.291000000
C    -3.912000000    -3.460000000    -3.826000000
O    -3.780000000    -3.586000000    -5.202000000
C    -2.838000000    -2.852000000    -5.922000000
C    -1.469000000    -2.864000000    -5.629000000
H    -1.177000000    -3.424000000    -4.745000000
C    -3.222000000    -2.060000000    -7.039000000
H    -4.306000000    -2.023000000    -7.112000000
C    -2.316000000    -1.328000000    -7.848000000
H    -2.604000000    -0.586000000    -8.588000000
C    -0.999000000    -1.344000000    -7.423000000
H    -0.282000000    -0.703000000    -7.929000000
C    -0.551000000    -2.076000000    -6.379000000
O     0.814000000    -2.225000000    -6.135000000
C     1.514000000    -1.301000000    -5.340000000
C     2.821000000    -1.611000000    -4.889000000
H     3.137000000    -2.599000000    -5.217000000
C     3.435000000    -0.740000000    -4.019000000
O     4.600000000    -1.109000000    -3.394000000
C     5.501000000    -0.152000000    -2.962000000
C     5.942000000     0.844000000    -3.812000000
H     5.481000000     0.965000000    -4.789000000
C     6.744000000     1.857000000    -3.263000000
H     7.046000000     2.703000000    -3.875000000
C     7.224000000     1.776000000    -1.931000000
H     7.968000000     2.525000000    -1.673000000
C     6.888000000     0.683000000    -1.163000000
C     5.956000000    -0.285000000    -1.656000000
H     5.600000000    -1.118000000    -1.055000000
C     2.274000000    -1.739000000    -0.005000000
H     3.118000000    -2.139000000     0.552000000
C     1.462000000    -0.773000000     0.577000000
H     1.779000000    -0.281000000     1.493000000
C     0.281000000    -0.435000000     0.021000000
H    -0.320000000     0.318000000     0.510000000
C    -0.142000000    -1.004000000    -1.164000000
H    -1.098000000    -0.798000000    -1.639000000
C     0.690000000    -2.049000000    -1.664000000
H     0.334000000    -2.516000000    -2.579000000
C     1.896000000    -2.427000000    -1.147000000
C     2.757000000    -3.580000000    -1.775000000
O     2.254000000    -4.445000000    -2.448000000
O     3.836000000    -3.824000000    -1.233000000
O     5.094000000    -7.160000000    -0.024000000
H     5.869000000    -6.794000000     0.401000000
H     4.812000000    -7.867000000     0.557000000
O     4.532000000    -4.984000000    -3.892000000
H     3.793000000    -4.570000000    -3.446000000
H     5.110000000    -5.268000000    -3.184000000
O     1.196000000    -7.101000000     3.591000000
H     0.951000000    -6.193000000     3.414000000
H     1.998000000    -7.036000000     4.110000000
O     6.162000000    -7.389000000    -2.937000000
H     5.445000000    -7.497000000    -3.562000000
H     5.730000000    -7.328000000    -2.085000000
O     6.638000000    -1.780000000    -5.517000000
H     6.097000000    -1.388000000    -4.830000000
H     7.537000000    -1.584000000    -5.254000000
O     1.080000000    -5.448000000    -4.921000000
H     1.138000000    -5.017000000    -4.069000000
H     1.928000000    -5.880000000    -5.029000000
O     8.585000000    -6.259000000    -4.008000000
H     7.785000000    -6.051000000    -3.525000000
H     8.308000000    -6.300000000    -4.924000000
O     3.175000000    -6.890000000    -1.909000000
H     2.782000000    -6.042000000    -2.117000000
H     3.969000000    -6.673000000    -1.420000000
O     0.868000000    -8.217000000    -0.265000000
H     0.788000000    -8.755000000    -1.053000000
H     1.724000000    -7.797000000    -0.348000000
O     7.377000000    -6.308000000     1.941000000
H     6.816000000    -5.775000000     2.505000000
H     7.667000000    -5.707000000     1.256000000
O     4.109000000    -4.271000000     1.491000000
H     3.885000000    -3.866000000     0.653000000
H     3.694000000    -5.133000000     1.460000000
O     4.188000000   -10.114000000    -2.657000000
H     4.480000000    -9.673000000    -3.455000000
H     3.419000000    -9.618000000    -2.376000000
O     1.000000000    -4.588000000    -7.902000000
H     1.143000000    -5.533000000    -7.836000000
H     0.872000000    -4.302000000    -6.998000000
O    -1.838000000    -7.675000000    -0.286000000
H    -1.873000000    -6.764000000    -0.576000000
H    -0.908000000    -7.843000000    -0.133000000
O    -0.103000000    -7.401000000    -3.003000000
H     0.451000000    -6.957000000    -3.646000000
H    -0.276000000    -6.736000000    -2.337000000
O     6.484000000    -3.532000000    -2.008000000
H     5.555000000    -3.451000000    -1.793000000
H     6.688000000    -2.734000000    -2.495000000
O    -0.312000000    -5.293000000    -1.522000000
H    -0.824000000    -4.705000000    -0.966000000
H     0.437000000    -4.766000000    -1.802000000
O     4.565000000    -5.538000000    -6.620000000
H     4.457000000    -5.406000000    -5.678000000
H     4.730000000    -4.661000000    -6.967000000
O     8.053000000    -4.549000000    -0.076000000
H     8.910000000    -4.473000000    -0.495000000
H     7.459000000    -4.077000000    -0.660000000
