215
-1450.25770
C    -0.157000000    -4.087000000     1.754000000
H    -1.156000000    -3.921000000     1.360000000
C     0.277000000    -3.266000000     2.799000000
C     1.635000000    -3.349000000     3.194000000
H     2.089000000    -2.665000000     3.908000000
C    -0.642000000    -2.203000000     3.306000000
O    -2.000000000    -2.627000000     3.525000000
H    -0.771000000    -1.406000000     2.558000000
O    -0.203000000    -1.674000000     4.547000000
C    -0.111000000    -0.305000000     4.719000000
C     1.176000000     0.176000000     4.489000000
H     2.067000000    -0.444000000     4.423000000
C     1.337000000     1.571000000     4.247000000
O     2.532000000     2.057000000     3.834000000
C     0.244000000     2.402000000     4.258000000
C     0.443000000     3.906000000     3.999000000
H    -0.414000000     4.466000000     4.378000000
C     0.443000000     4.285000000     2.523000000
C    -0.789000000     4.556000000     1.870000000
H    -1.638000000     4.633000000     2.545000000
H     1.405000000     4.186000000     4.434000000
C    -1.046000000     1.901000000     4.535000000
H    -1.865000000     2.615000000     4.536000000
C    -1.240000000     0.517000000     4.664000000
C    -2.647000000    -0.075000000     4.865000000
H    -3.357000000     0.611000000     5.333000000
H    -2.523000000    -0.909000000     5.560000000
C    -3.298000000    -0.528000000     3.640000000
C    -4.132000000     0.335000000     2.918000000
H    -4.229000000     1.332000000     3.341000000
C    -3.021000000    -1.787000000     3.045000000
C    -3.643000000    -2.162000000     1.852000000
H    -3.422000000    -3.141000000     1.435000000
C    -4.508000000    -1.299000000     1.204000000
O    -4.799000000    -1.683000000    -0.060000000
C    -4.130000000    -1.222000000    -1.218000000
C    -4.156000000    -2.239000000    -2.363000000
C    -3.971000000    -1.849000000    -3.681000000
H    -4.011000000    -0.791000000    -3.926000000
C    -4.137000000    -3.608000000    -2.109000000
H    -4.080000000    -3.881000000    -1.059000000
O    -4.921000000    -0.045000000    -1.591000000
H    -3.124000000    -0.832000000    -1.004000000
C    -4.760000000    -0.057000000     1.727000000
C    -5.541000000     1.038000000     0.985000000
H    -5.908000000     1.765000000     1.712000000
H    -6.385000000     0.707000000     0.377000000
C    -4.579000000     1.726000000    -0.017000000
C    -3.888000000     2.841000000     0.425000000
H    -4.073000000     3.285000000     1.400000000
C    -4.410000000     1.228000000    -1.283000000
C    -3.483000000     1.848000000    -2.189000000
H    -3.292000000     1.394000000    -3.159000000
C    -2.685000000     2.903000000    -1.731000000
O    -1.724000000     3.447000000    -2.536000000
C    -0.243000000     3.439000000    -2.199000000
C     0.553000000     3.177000000    -3.444000000
C     0.114000000     2.118000000    -4.283000000
H    -0.839000000     1.702000000    -3.968000000
C     1.821000000     3.713000000    -3.689000000
H     2.224000000     4.404000000    -2.954000000
O     0.172000000     4.707000000    -1.654000000
H    -0.057000000     2.576000000    -1.541000000
C    -2.945000000     3.456000000    -0.448000000
C    -2.338000000     4.821000000    -0.061000000
H    -2.961000000     5.268000000     0.717000000
H    -2.415000000     5.532000000    -0.887000000
C    -0.923000000     4.684000000     0.495000000
C     0.239000000     4.755000000    -0.278000000
C     1.490000000     4.550000000     0.354000000
H     2.398000000     4.589000000    -0.241000000
C     1.596000000     4.309000000     1.736000000
O     2.786000000     3.853000000     2.347000000
C     2.816000000     2.388000000     2.459000000
H     1.948000000     2.069000000     1.864000000
C     4.056000000     1.680000000     1.932000000
C     4.951000000     0.960000000     2.748000000
H     4.791000000     0.917000000     3.822000000
C     4.241000000     1.693000000     0.550000000
H     3.495000000     2.151000000    -0.094000000
C     5.275000000     0.984000000    -0.025000000
O     5.552000000     0.996000000    -1.357000000
C     6.132000000     0.233000000     0.795000000
H     6.819000000    -0.447000000     0.296000000
C     5.980000000     0.148000000     2.128000000
O     6.738000000    -0.678000000     2.966000000
C     6.028000000    -1.725000000     3.660000000
C     5.205000000    -2.619000000     3.025000000
H     5.264000000    -2.736000000     1.946000000
C     6.168000000    -1.765000000     5.078000000
H     6.836000000    -1.105000000     5.624000000
C     5.280000000    -2.623000000     5.794000000
H     5.272000000    -2.492000000     6.873000000
C     4.388000000    -3.478000000     5.110000000
H     3.878000000    -4.262000000     5.664000000
C     4.406000000    -3.497000000     3.724000000
O     3.678000000    -4.484000000     3.084000000
C     2.457000000    -4.383000000     2.635000000
C     1.922000000    -5.275000000     1.747000000
H     2.496000000    -6.128000000     1.395000000
C     0.632000000    -5.111000000     1.242000000
O     0.126000000    -6.070000000     0.363000000
C    -1.235000000    -6.215000000     0.059000000
C    -1.811000000    -5.979000000    -1.189000000
H    -1.148000000    -5.733000000    -2.015000000
C    -2.141000000    -6.510000000     1.068000000
H    -1.736000000    -6.825000000     2.027000000
C    -3.516000000    -6.589000000     0.854000000
H    -4.175000000    -6.656000000     1.716000000
C    -4.068000000    -6.532000000    -0.430000000
H    -5.130000000    -6.737000000    -0.542000000
C    -3.181000000    -6.226000000    -1.471000000
O    -3.734000000    -5.902000000    -2.748000000
C    -3.947000000    -4.565000000    -3.108000000
C    -3.742000000    -4.115000000    -4.444000000
H    -3.513000000    -4.787000000    -5.266000000
C    -3.732000000    -2.755000000    -4.713000000
O    -3.559000000    -2.348000000    -5.974000000
C    -2.919000000    -1.125000000    -6.219000000
C    -1.552000000    -0.859000000    -5.881000000
H    -0.871000000    -1.532000000    -5.367000000
C    -3.733000000    -0.152000000    -6.823000000
H    -4.725000000    -0.422000000    -7.176000000
C    -3.142000000     1.038000000    -7.248000000
H    -3.775000000     1.763000000    -7.755000000
C    -1.782000000     1.308000000    -7.037000000
H    -1.440000000     2.324000000    -7.216000000
C    -1.004000000     0.321000000    -6.387000000
O     0.342000000     0.578000000    -6.141000000
C     0.822000000     1.627000000    -5.363000000
C     2.066000000     2.292000000    -5.648000000
H     2.778000000     1.906000000    -6.373000000
C     2.593000000     3.278000000    -4.779000000
O     3.943000000     3.736000000    -4.916000000
C     4.684000000     3.572000000    -3.824000000
C     5.453000000     4.612000000    -3.415000000
H     5.414000000     5.548000000    -3.968000000
C     6.371000000     4.429000000    -2.343000000
H     6.951000000     5.302000000    -2.054000000
C     6.277000000     3.246000000    -1.655000000
H     6.931000000     3.011000000    -0.819000000
C     5.497000000     2.162000000    -2.058000000
C     4.767000000     2.318000000    -3.186000000
H     4.134000000     1.519000000    -3.564000000
C     2.510000000    -1.702000000    -0.690000000
H     3.490000000    -2.048000000    -0.371000000
C     1.964000000    -0.742000000     0.169000000
H     2.302000000    -0.525000000     1.179000000
C     0.761000000    -0.138000000    -0.229000000
H     0.340000000     0.506000000     0.536000000
C     0.099000000    -0.489000000    -1.343000000
H    -0.884000000    -0.142000000    -1.651000000
C     0.537000000    -1.531000000    -2.128000000
H    -0.044000000    -1.915000000    -2.963000000
C     1.764000000    -2.187000000    -1.779000000
C     2.356000000    -3.261000000    -2.610000000
O     1.640000000    -3.869000000    -3.378000000
O     3.553000000    -3.510000000    -2.544000000
O     1.090000000    -4.825000000    -7.971000000
H     0.640000000    -3.999000000    -8.149000000
H     0.893000000    -5.012000000    -7.053000000
O     2.178000000    -7.219000000    -5.133000000
H     2.835000000    -6.539000000    -5.283000000
H     1.745000000    -6.959000000    -4.321000000
O     5.348000000    -7.120000000     1.357000000
H     5.050000000    -7.897000000     1.830000000
H     4.724000000    -7.024000000     0.637000000
O     7.629000000    -0.309000000    -3.353000000
H     7.982000000    -0.028000000    -2.508000000
H     6.749000000    -0.626000000    -3.151000000
O     3.296000000    -1.341000000    -5.682000000
H     3.930000000    -2.057000000    -5.737000000
H     3.428000000    -0.971000000    -4.809000000
O     4.477000000    -6.086000000    -1.088000000
H     4.262000000    -5.368000000    -1.684000000
H     5.414000000    -5.987000000    -0.921000000
O    -1.809000000    -7.501000000    -5.057000000
H    -1.429000000    -7.074000000    -4.290000000
H    -1.134000000    -7.429000000    -5.732000000
O    -0.152000000    -4.480000000    -5.183000000
H     0.553000000    -4.093000000    -4.663000000
H    -0.883000000    -4.564000000    -4.571000000
O     1.146000000    -6.295000000    -2.497000000
H     1.435000000    -5.469000000    -2.884000000
H     1.383000000    -6.222000000    -1.572000000
O     2.222000000    -9.102000000    -2.527000000
H     1.645000000    -8.343000000    -2.440000000
H     3.041000000    -8.743000000    -2.869000000
O     6.414000000    -6.162000000    -4.260000000
H     6.438000000    -6.509000000    -5.152000000
H     6.746000000    -5.268000000    -4.342000000
O     6.187000000    -3.591000000    -0.701000000
H     5.291000000    -3.295000000    -0.864000000
H     6.171000000    -3.920000000     0.198000000
O     7.028000000    -3.573000000    -4.149000000
H     6.306000000    -3.115000000    -3.719000000
H     7.817000000    -3.161000000    -3.797000000
O     3.823000000    -4.890000000    -5.121000000
H     3.436000000    -4.706000000    -4.265000000
H     4.697000000    -5.226000000    -4.922000000
O    -0.245000000    -2.530000000    -8.232000000
H     0.315000000    -1.925000000    -7.746000000
H    -0.750000000    -1.968000000    -8.821000000
O     4.041000000    -4.138000000    -7.822000000
H     3.183000000    -3.809000000    -8.091000000
H     3.909000000    -4.443000000    -6.924000000
O     2.431000000    -0.705000000    -8.125000000
H     2.813000000    -1.090000000    -7.337000000
H     3.184000000    -0.431000000    -8.648000000
O     5.073000000    -1.412000000    -2.940000000
H     4.663000000    -0.723000000    -2.417000000
H     4.401000000    -2.091000000    -3.010000000
O     8.724000000    -3.034000000    -1.790000000
H     7.895000000    -2.721000000    -1.429000000
H     8.806000000    -3.929000000    -1.459000000
