215
-1487.30145
C    -0.215000000    -4.495000000     2.501000000
H    -1.244000000    -4.393000000     2.165000000
C     0.311000000    -3.524000000     3.345000000
C     1.592000000    -3.687000000     3.863000000
H     1.940000000    -2.889000000     4.514000000
C    -0.500000000    -2.325000000     3.641000000
O    -1.915000000    -2.555000000     3.879000000
H    -0.455000000    -1.737000000     2.712000000
O     0.030000000    -1.523000000     4.701000000
C     0.160000000    -0.202000000     4.526000000
C     1.425000000     0.307000000     4.241000000
H     2.236000000    -0.410000000     4.143000000
C     1.639000000     1.671000000     4.029000000
O     2.837000000     2.127000000     3.556000000
C     0.498000000     2.520000000     4.073000000
C     0.719000000     4.004000000     3.719000000
H     0.058000000     4.640000000     4.312000000
C     0.536000000     4.222000000     2.267000000
C    -0.713000000     4.533000000     1.758000000
H    -1.538000000     4.779000000     2.423000000
H     1.767000000     4.156000000     3.986000000
C    -0.780000000     2.007000000     4.342000000
H    -1.650000000     2.657000000     4.392000000
C    -0.943000000     0.643000000     4.675000000
C    -2.310000000     0.119000000     5.058000000
H    -2.948000000     0.921000000     5.433000000
H    -2.283000000    -0.741000000     5.730000000
C    -2.930000000    -0.309000000     3.744000000
C    -3.817000000     0.585000000     3.019000000
H    -3.969000000     1.623000000     3.305000000
C    -2.709000000    -1.634000000     3.308000000
C    -3.239000000    -1.921000000     2.024000000
H    -3.079000000    -2.887000000     1.552000000
C    -4.166000000    -1.124000000     1.396000000
O    -4.643000000    -1.578000000     0.194000000
C    -4.057000000    -1.044000000    -1.030000000
C    -3.865000000    -2.217000000    -1.964000000
C    -3.838000000    -1.929000000    -3.346000000
H    -4.026000000    -0.958000000    -3.797000000
C    -3.517000000    -3.549000000    -1.582000000
H    -3.583000000    -3.767000000    -0.519000000
O    -4.768000000     0.090000000    -1.598000000
H    -3.088000000    -0.682000000    -0.655000000
C    -4.480000000     0.123000000     1.887000000
C    -5.362000000     1.105000000     1.131000000
H    -5.742000000     1.846000000     1.836000000
H    -6.224000000     0.617000000     0.671000000
C    -4.554000000     1.812000000     0.036000000
C    -4.002000000     3.061000000     0.370000000
H    -4.195000000     3.419000000     1.378000000
C    -4.354000000     1.351000000    -1.261000000
C    -3.610000000     2.031000000    -2.151000000
H    -3.421000000     1.549000000    -3.106000000
C    -2.940000000     3.205000000    -1.780000000
O    -1.996000000     3.728000000    -2.715000000
C    -0.648000000     3.481000000    -2.503000000
C    -0.008000000     3.275000000    -3.859000000
C    -0.539000000     2.313000000    -4.714000000
H    -1.477000000     1.827000000    -4.457000000
C     1.336000000     3.696000000    -4.049000000
H     1.841000000     4.298000000    -3.299000000
O    -0.019000000     4.541000000    -1.817000000
H    -0.519000000     2.584000000    -1.880000000
C    -3.144000000     3.770000000    -0.497000000
C    -2.373000000     5.018000000    -0.073000000
H    -2.787000000     5.558000000     0.781000000
H    -2.418000000     5.706000000    -0.920000000
C    -0.945000000     4.666000000     0.399000000
C     0.145000000     4.582000000    -0.476000000
C     1.436000000     4.277000000     0.023000000
H     2.289000000     4.161000000    -0.641000000
C     1.582000000     3.969000000     1.341000000
O     2.865000000     3.618000000     1.739000000
C     2.942000000     2.229000000     2.088000000
H     2.047000000     1.714000000     1.710000000
C     4.186000000     1.539000000     1.451000000
C     4.722000000     0.362000000     2.002000000
H     4.279000000    -0.020000000     2.918000000
C     4.600000000     2.035000000     0.223000000
H     4.161000000     2.980000000    -0.086000000
C     5.595000000     1.321000000    -0.453000000
O     6.153000000     1.829000000    -1.629000000
C     6.164000000     0.195000000     0.089000000
H     6.940000000    -0.274000000    -0.511000000
C     5.749000000    -0.301000000     1.339000000
O     6.292000000    -1.485000000     1.757000000
C     5.866000000    -2.115000000     2.889000000
C     5.021000000    -3.173000000     2.765000000
H     4.704000000    -3.403000000     1.751000000
C     6.247000000    -1.667000000     4.190000000
H     6.825000000    -0.749000000     4.263000000
C     5.784000000    -2.358000000     5.364000000
H     6.028000000    -2.022000000     6.369000000
C     4.994000000    -3.485000000     5.236000000
H     4.735000000    -4.113000000     6.084000000
C     4.619000000    -3.854000000     3.950000000
O     3.803000000    -4.895000000     3.845000000
C     2.412000000    -4.775000000     3.505000000
C     1.872000000    -5.765000000     2.663000000
H     2.434000000    -6.668000000     2.439000000
C     0.538000000    -5.648000000     2.196000000
O     0.126000000    -6.611000000     1.346000000
C    -1.238000000    -6.580000000     0.931000000
C    -1.485000000    -6.342000000    -0.427000000
H    -0.600000000    -6.201000000    -1.043000000
C    -2.284000000    -6.742000000     1.842000000
H    -2.057000000    -6.969000000     2.881000000
C    -3.655000000    -6.711000000     1.379000000
H    -4.502000000    -6.783000000     2.056000000
C    -3.858000000    -6.482000000     0.018000000
H    -4.863000000    -6.351000000    -0.375000000
C    -2.799000000    -6.250000000    -0.860000000
O    -3.021000000    -5.904000000    -2.159000000
C    -3.309000000    -4.580000000    -2.512000000
C    -3.247000000    -4.265000000    -3.853000000
H    -2.971000000    -5.109000000    -4.479000000
C    -3.488000000    -2.950000000    -4.224000000
O    -3.461000000    -2.659000000    -5.553000000
C    -3.108000000    -1.393000000    -6.045000000
C    -1.771000000    -0.994000000    -6.097000000
H    -1.048000000    -1.730000000    -5.756000000
C    -4.063000000    -0.598000000    -6.569000000
H    -5.076000000    -0.993000000    -6.576000000
C    -3.825000000     0.657000000    -7.091000000
H    -4.640000000     1.330000000    -7.346000000
C    -2.484000000     1.084000000    -7.003000000
H    -2.190000000     2.106000000    -7.228000000
C    -1.464000000     0.255000000    -6.565000000
O    -0.150000000     0.716000000    -6.487000000
C     0.264000000     1.862000000    -5.812000000
C     1.573000000     2.336000000    -5.989000000
H     2.219000000     2.074000000    -6.822000000
C     2.096000000     3.167000000    -5.064000000
O     3.398000000     3.614000000    -5.221000000
C     4.272000000     3.799000000    -4.190000000
C     4.698000000     5.068000000    -3.823000000
H     4.361000000     5.875000000    -4.469000000
C     5.674000000     5.227000000    -2.829000000
H     5.871000000     6.269000000    -2.592000000
C     6.118000000     4.144000000    -2.132000000
H     6.957000000     4.185000000    -1.441000000
C     5.624000000     2.861000000    -2.388000000
C     4.683000000     2.699000000    -3.396000000
H     4.365000000     1.749000000    -3.817000000
C     1.486000000    -2.262000000    -0.090000000
H     2.206000000    -3.043000000     0.140000000
C     1.196000000    -1.282000000     0.870000000
H     1.784000000    -1.272000000     1.785000000
C     0.262000000    -0.287000000     0.466000000
H     0.016000000     0.536000000     1.107000000
C    -0.348000000    -0.268000000    -0.773000000
H    -0.934000000     0.620000000    -0.996000000
C    -0.073000000    -1.252000000    -1.679000000
H    -0.456000000    -1.155000000    -2.692000000
C     0.850000000    -2.328000000    -1.367000000
C     1.209000000    -3.381000000    -2.391000000
O     0.885000000    -3.241000000    -3.576000000
O     1.986000000    -4.317000000    -2.029000000
O    -0.251000000    -5.217000000    -4.979000000
H    -0.413000000    -5.894000000    -4.322000000
H     0.249000000    -4.547000000    -4.513000000
O     5.501000000    -2.968000000    -6.088000000
H     6.100000000    -2.428000000    -6.604000000
H     4.694000000    -2.456000000    -6.044000000
O     3.146000000    -5.253000000    -4.361000000
H     2.721000000    -4.892000000    -3.582000000
H     2.839000000    -6.158000000    -4.402000000
O     6.595000000    -1.877000000    -3.593000000
H     6.162000000    -2.578000000    -4.080000000
H     6.621000000    -1.141000000    -4.204000000
O     1.254000000    -9.737000000    -0.395000000
H     1.247000000    -8.784000000    -0.311000000
H     0.805000000    -9.907000000    -1.223000000
O     5.178000000    -7.621000000     0.127000000
H     4.828000000    -6.731000000     0.102000000
H     5.563000000    -7.752000000    -0.740000000
O    -0.357000000    -8.128000000    -4.078000000
H    -0.671000000    -8.494000000    -3.251000000
H     0.583000000    -8.310000000    -4.079000000
O     1.552000000    -2.580000000    -6.001000000
H     1.349000000    -2.659000000    -5.069000000
H     2.212000000    -1.888000000    -6.045000000
O     1.630000000    -7.030000000    -1.705000000
H     1.697000000    -6.081000000    -1.809000000
H     1.841000000    -7.381000000    -2.571000000
O     3.621000000    -0.662000000    -5.596000000
H     3.334000000    -0.541000000    -4.691000000
H     4.306000000    -0.005000000    -5.720000000
O     4.957000000    -2.542000000    -1.287000000
H     4.979000000    -1.657000000    -0.924000000
H     5.392000000    -2.463000000    -2.136000000
O     2.547000000    -8.291000000    -3.964000000
H     3.464000000    -8.246000000    -3.692000000
H     2.543000000    -8.912000000    -4.693000000
O     4.397000000    -5.096000000    -0.925000000
H     4.776000000    -4.226000000    -1.048000000
H     3.452000000    -4.955000000    -0.980000000
O     5.951000000    -5.201000000    -3.680000000
H     5.591000000    -5.474000000    -2.836000000
H     5.204000000    -5.227000000    -4.278000000
O     0.598000000    -1.955000000    -8.469000000
H     0.769000000    -1.686000000    -7.566000000
H     0.382000000    -2.885000000    -8.405000000
O    -0.223000000    -4.289000000    -7.555000000
H     0.530000000    -4.879000000    -7.516000000
H    -0.543000000    -4.249000000    -6.654000000
O     2.722000000    -4.815000000    -6.933000000
H     2.836000000    -5.036000000    -6.009000000
H     2.155000000    -4.044000000    -6.927000000
O     3.089000000    -0.438000000    -2.550000000
H     2.482000000     0.250000000    -2.278000000
H     2.857000000    -1.191000000    -2.006000000
O     5.913000000    -6.310000000    -6.549000000
H     5.108000000    -6.114000000    -6.070000000
H     6.562000000    -5.709000000    -6.182000000
