215
-1459.47085
C    -0.200000000    -4.794000000     2.736000000
H    -1.253000000    -4.814000000     2.464000000
C     0.376000000    -3.654000000     3.313000000
C     1.766000000    -3.711000000     3.551000000
H     2.192000000    -2.800000000     3.965000000
C    -0.461000000    -2.386000000     3.478000000
O    -1.912000000    -2.631000000     3.762000000
H    -0.396000000    -1.811000000     2.542000000
O     0.193000000    -1.614000000     4.601000000
C     0.344000000    -0.201000000     4.510000000
C     1.563000000     0.293000000     4.072000000
H     2.269000000    -0.477000000     3.774000000
C     1.705000000     1.660000000     3.883000000
O     2.907000000     2.121000000     3.339000000
C     0.614000000     2.571000000     4.066000000
C     0.721000000     4.017000000     3.696000000
H     0.018000000     4.667000000     4.221000000
C     0.489000000     4.278000000     2.181000000
C    -0.785000000     4.562000000     1.696000000
H    -1.599000000     4.588000000     2.416000000
H     1.640000000     4.492000000     4.047000000
C    -0.645000000     1.996000000     4.354000000
H    -1.492000000     2.677000000     4.398000000
C    -0.831000000     0.646000000     4.537000000
C    -2.141000000     0.074000000     4.972000000
H    -2.606000000     0.908000000     5.501000000
H    -1.916000000    -0.621000000     5.784000000
C    -2.956000000    -0.448000000     3.804000000
C    -3.769000000     0.492000000     3.186000000
H    -3.875000000     1.516000000     3.534000000
C    -2.894000000    -1.743000000     3.311000000
C    -3.604000000    -2.109000000     2.191000000
H    -3.422000000    -3.081000000     1.741000000
C    -4.416000000    -1.199000000     1.547000000
O    -5.012000000    -1.513000000     0.377000000
C    -4.250000000    -1.084000000    -0.797000000
C    -3.918000000    -2.153000000    -1.813000000
C    -4.088000000    -1.917000000    -3.198000000
H    -4.304000000    -0.929000000    -3.597000000
C    -3.297000000    -3.338000000    -1.438000000
H    -3.034000000    -3.486000000    -0.393000000
O    -4.872000000     0.207000000    -1.317000000
H    -3.246000000    -0.789000000    -0.457000000
C    -4.534000000     0.113000000     2.089000000
C    -5.238000000     1.283000000     1.438000000
H    -5.650000000     1.953000000     2.197000000
H    -6.163000000     0.862000000     1.038000000
C    -4.478000000     1.955000000     0.290000000
C    -3.851000000     3.207000000     0.582000000
H    -4.126000000     3.725000000     1.497000000
C    -4.385000000     1.416000000    -1.003000000
C    -3.704000000     2.059000000    -1.998000000
H    -3.595000000     1.562000000    -2.958000000
C    -2.987000000     3.172000000    -1.733000000
O    -2.152000000     3.592000000    -2.718000000
C    -0.734000000     3.437000000    -2.413000000
C    -0.020000000     3.023000000    -3.687000000
C    -0.713000000     2.271000000    -4.556000000
H    -1.798000000     2.199000000    -4.548000000
C     1.406000000     3.173000000    -3.778000000
H     1.883000000     3.871000000    -3.094000000
O    -0.148000000     4.606000000    -1.866000000
H    -0.719000000     2.657000000    -1.637000000
C    -3.057000000     3.757000000    -0.462000000
C    -2.381000000     5.055000000    -0.171000000
H    -2.893000000     5.743000000     0.505000000
H    -2.326000000     5.679000000    -1.066000000
C    -0.991000000     4.794000000     0.389000000
C     0.056000000     4.640000000    -0.476000000
C     1.324000000     4.370000000    -0.013000000
H     2.166000000     4.114000000    -0.651000000
C     1.551000000     4.217000000     1.282000000
O     2.777000000     3.680000000     1.620000000
C     2.841000000     2.253000000     1.906000000
H     1.965000000     1.789000000     1.430000000
C     4.114000000     1.609000000     1.245000000
C     4.712000000     0.536000000     1.852000000
H     4.223000000    -0.005000000     2.658000000
C     4.748000000     2.227000000     0.173000000
H     4.278000000     3.098000000    -0.278000000
C     5.961000000     1.756000000    -0.411000000
O     6.581000000     2.325000000    -1.516000000
C     6.566000000     0.642000000     0.230000000
H     7.518000000     0.375000000    -0.222000000
C     5.996000000     0.112000000     1.361000000
O     6.607000000    -1.046000000     1.887000000
C     5.929000000    -1.701000000     2.899000000
C     5.291000000    -2.922000000     2.550000000
H     5.176000000    -3.256000000     1.522000000
C     5.946000000    -1.238000000     4.220000000
H     6.455000000    -0.316000000     4.488000000
C     5.335000000    -2.079000000     5.175000000
H     5.295000000    -1.717000000     6.199000000
C     4.817000000    -3.316000000     4.887000000
H     4.470000000    -4.037000000     5.622000000
C     4.711000000    -3.660000000     3.556000000
O     3.974000000    -4.802000000     3.217000000
C     2.557000000    -4.825000000     3.262000000
C     1.912000000    -5.982000000     2.864000000
H     2.514000000    -6.849000000     2.606000000
C     0.580000000    -5.968000000     2.578000000
O     0.027000000    -7.119000000     1.994000000
C    -1.012000000    -7.093000000     1.061000000
C    -1.011000000    -6.118000000     0.035000000
H    -0.135000000    -5.505000000    -0.160000000
C    -2.138000000    -7.902000000     1.262000000
H    -2.099000000    -8.693000000     2.006000000
C    -3.195000000    -7.871000000     0.347000000
H    -4.080000000    -8.473000000     0.540000000
C    -3.176000000    -6.919000000    -0.687000000
H    -3.987000000    -6.973000000    -1.409000000
C    -2.111000000    -6.088000000    -0.860000000
O    -1.944000000    -5.310000000    -1.974000000
C    -2.703000000    -4.242000000    -2.355000000
C    -2.873000000    -3.981000000    -3.703000000
H    -2.544000000    -4.706000000    -4.442000000
C    -3.569000000    -2.845000000    -4.164000000
O    -3.645000000    -2.553000000    -5.540000000
C    -3.408000000    -1.292000000    -5.973000000
C    -2.195000000    -0.654000000    -6.002000000
H    -1.314000000    -1.198000000    -5.672000000
C    -4.532000000    -0.598000000    -6.314000000
H    -5.514000000    -1.023000000    -6.125000000
C    -4.423000000     0.709000000    -6.849000000
H    -5.317000000     1.291000000    -7.058000000
C    -3.135000000     1.306000000    -6.880000000
H    -2.982000000     2.265000000    -7.368000000
C    -2.014000000     0.631000000    -6.462000000
O    -0.768000000     1.105000000    -6.682000000
C    -0.056000000     1.774000000    -5.688000000
C     1.342000000     1.834000000    -5.823000000
H     1.893000000     1.372000000    -6.638000000
C     2.098000000     2.575000000    -4.887000000
O     3.469000000     2.713000000    -5.034000000
C     4.323000000     3.293000000    -4.109000000
C     4.466000000     4.661000000    -3.948000000
H     3.739000000     5.310000000    -4.429000000
C     5.239000000     5.357000000    -3.048000000
H     5.260000000     6.436000000    -2.921000000
C     6.025000000     4.574000000    -2.238000000
H     6.606000000     5.065000000    -1.461000000
C     5.927000000     3.176000000    -2.312000000
C     5.157000000     2.554000000    -3.259000000
H     5.098000000     1.478000000    -3.402000000
C     0.997000000    -2.357000000    -0.466000000
H     1.724000000    -3.029000000    -0.017000000
C     0.811000000    -1.134000000     0.172000000
H     1.283000000    -0.965000000     1.137000000
C     0.083000000    -0.069000000    -0.477000000
H     0.094000000     0.944000000    -0.197000000
C    -0.501000000    -0.238000000    -1.734000000
H    -1.079000000     0.551000000    -2.208000000
C    -0.398000000    -1.534000000    -2.338000000
H    -0.871000000    -1.697000000    -3.303000000
C     0.456000000    -2.528000000    -1.768000000
C     0.835000000    -3.756000000    -2.520000000
O     0.471000000    -3.888000000    -3.648000000
O     1.627000000    -4.537000000    -2.052000000
O     0.257000000    -4.898000000    -6.035000000
H    -0.455000000    -5.534000000    -5.959000000
H     0.414000000    -4.607000000    -5.137000000
O     2.437000000    -6.194000000    -4.139000000
H     1.923000000    -5.544000000    -3.661000000
H     1.967000000    -6.310000000    -4.965000000
O    -0.508000000    -9.773000000    -1.838000000
H    -0.086000000    -9.033000000    -2.273000000
H    -0.458000000    -9.563000000    -0.905000000
O     4.753000000    -6.813000000    -0.342000000
H     4.362000000    -5.946000000    -0.455000000
H     4.793000000    -7.175000000    -1.227000000
O    -0.977000000    -6.700000000    -4.527000000
H    -0.260000000    -7.324000000    -4.639000000
H    -0.699000000    -6.145000000    -3.798000000
O     1.463000000    -1.958000000    -5.965000000
H     1.210000000    -2.481000000    -5.205000000
H     2.373000000    -1.712000000    -5.796000000
O     1.420000000    -7.411000000    -1.813000000
H     1.378000000    -6.600000000    -1.306000000
H     1.973000000    -7.196000000    -2.564000000
O     3.683000000    -0.131000000    -5.285000000
H     3.418000000    -0.311000000    -4.383000000
H     3.771000000     0.821000000    -5.324000000
O     2.852000000    -9.022000000     0.061000000
H     3.321000000    -8.189000000     0.120000000
H     2.523000000    -9.048000000    -0.837000000
O    -2.509000000    -6.660000000    -6.797000000
H    -3.150000000    -7.333000000    -6.566000000
H    -1.873000000    -6.680000000    -6.081000000
O     5.128000000    -1.863000000    -1.122000000
H     5.324000000    -1.675000000    -0.204000000
H     5.806000000    -1.397000000    -1.612000000
O    -3.260000000    -8.335000000    -4.719000000
H    -2.473000000    -7.944000000    -4.339000000
H    -3.496000000    -9.037000000    -4.112000000
O     4.228000000    -4.381000000    -1.719000000
H     4.642000000    -3.531000000    -1.564000000
H     3.321000000    -4.169000000    -1.937000000
O     5.185000000    -5.708000000    -4.595000000
H     5.398000000    -5.200000000    -3.813000000
H     4.230000000    -5.770000000    -4.588000000
O     0.308000000    -1.892000000    -8.682000000
H     0.887000000    -2.007000000    -7.929000000
H    -0.419000000    -2.493000000    -8.519000000
O     0.635000000    -8.728000000    -5.164000000
H     0.400000000    -9.356000000    -5.848000000
H     1.541000000    -8.943000000    -4.944000000
O    -1.515000000    -3.425000000    -7.717000000
H    -0.828000000    -3.811000000    -7.173000000
H    -2.331000000    -3.755000000    -7.342000000
O     2.465000000    -6.560000000    -7.179000000
H     3.398000000    -6.395000000    -7.314000000
H     2.078000000    -5.688000000    -7.098000000
O     2.720000000    -0.233000000    -2.670000000
H     3.222000000    -0.943000000    -2.271000000
H     1.952000000    -0.135000000    -2.106000000
