215
-1439.64489
C     0.070000000    -5.408000000     1.467000000
H    -0.882000000    -5.431000000     0.943000000
C     0.118000000    -4.656000000     2.641000000
C     1.308000000    -4.624000000     3.281000000
H     1.380000000    -3.966000000     4.144000000
C    -0.957000000    -3.559000000     2.873000000
O    -2.283000000    -4.011000000     2.445000000
H    -0.658000000    -2.814000000     2.121000000
O    -0.901000000    -2.997000000     4.217000000
C    -1.096000000    -1.643000000     4.352000000
C     0.067000000    -0.921000000     4.519000000
H     1.061000000    -1.360000000     4.524000000
C    -0.041000000     0.464000000     4.589000000
O     1.213000000     1.092000000     4.531000000
C    -1.311000000     1.090000000     4.638000000
C    -1.486000000     2.620000000     4.626000000
H    -2.483000000     2.870000000     4.994000000
C    -1.273000000     3.329000000     3.273000000
C    -2.356000000     3.598000000     2.454000000
H    -3.358000000     3.211000000     2.621000000
H    -0.744000000     3.156000000     5.222000000
C    -2.473000000     0.313000000     4.468000000
H    -3.426000000     0.826000000     4.571000000
C    -2.354000000    -1.077000000     4.341000000
C    -3.596000000    -1.850000000     4.016000000
H    -4.491000000    -1.470000000     4.512000000
H    -3.511000000    -2.824000000     4.502000000
C    -3.801000000    -2.088000000     2.500000000
C    -4.644000000    -1.253000000     1.768000000
H    -5.236000000    -0.558000000     2.358000000
C    -3.083000000    -3.106000000     1.778000000
C    -3.140000000    -3.150000000     0.442000000
H    -2.647000000    -3.981000000    -0.056000000
C    -3.914000000    -2.221000000    -0.265000000
O    -3.846000000    -2.268000000    -1.618000000
C    -3.021000000    -1.320000000    -2.330000000
C    -2.240000000    -1.964000000    -3.530000000
C    -2.109000000    -1.235000000    -4.726000000
H    -2.733000000    -0.360000000    -4.893000000
C    -1.482000000    -3.049000000    -3.301000000
H    -1.603000000    -3.541000000    -2.339000000
O    -3.899000000    -0.241000000    -2.859000000
H    -2.288000000    -0.887000000    -1.633000000
C    -4.563000000    -1.179000000     0.442000000
C    -5.352000000    -0.135000000    -0.338000000
H    -6.185000000     0.291000000     0.226000000
H    -5.886000000    -0.711000000    -1.096000000
C    -4.523000000     1.065000000    -0.833000000
C    -4.368000000     2.217000000    -0.057000000
H    -4.914000000     2.384000000     0.868000000
C    -3.849000000     0.921000000    -2.056000000
C    -3.145000000     2.058000000    -2.561000000
H    -2.515000000     1.954000000    -3.442000000
C    -2.968000000     3.198000000    -1.758000000
O    -2.104000000     4.159000000    -2.104000000
C    -0.828000000     4.131000000    -1.543000000
C     0.307000000     4.169000000    -2.552000000
C     0.081000000     3.620000000    -3.872000000
H    -0.936000000     3.341000000    -4.137000000
C     1.604000000     4.573000000    -2.167000000
H     1.747000000     5.015000000    -1.184000000
O    -0.719000000     5.103000000    -0.456000000
H    -0.669000000     3.134000000    -1.106000000
C    -3.602000000     3.257000000    -0.549000000
C    -3.426000000     4.495000000     0.332000000
H    -4.357000000     4.655000000     0.879000000
H    -3.279000000     5.385000000    -0.284000000
C    -2.232000000     4.349000000     1.252000000
C    -0.949000000     4.701000000     0.837000000
C     0.118000000     4.465000000     1.648000000
H     1.055000000     4.879000000     1.284000000
C    -0.029000000     3.716000000     2.829000000
O     1.050000000     3.255000000     3.540000000
C     1.437000000     1.893000000     3.294000000
H     0.850000000     1.406000000     2.501000000
C     2.830000000     1.752000000     2.871000000
C     3.327000000     0.496000000     2.811000000
H     2.705000000    -0.333000000     3.138000000
C     3.624000000     2.800000000     2.394000000
H     3.251000000     3.813000000     2.267000000
C     4.907000000     2.522000000     1.919000000
O     5.631000000     3.569000000     1.430000000
C     5.471000000     1.264000000     2.069000000
H     6.521000000     1.161000000     1.808000000
C     4.643000000     0.198000000     2.495000000
O     5.236000000    -1.069000000     2.614000000
C     4.856000000    -2.055000000     3.538000000
C     4.386000000    -3.285000000     3.190000000
H     4.025000000    -3.454000000     2.179000000
C     5.074000000    -1.842000000     4.908000000
H     5.482000000    -0.869000000     5.169000000
C     4.709000000    -2.736000000     5.901000000
H     4.794000000    -2.464000000     6.950000000
C     4.300000000    -4.027000000     5.474000000
H     4.064000000    -4.748000000     6.253000000
C     4.063000000    -4.233000000     4.124000000
O     3.484000000    -5.432000000     3.728000000
C     2.351000000    -5.520000000     2.975000000
C     2.233000000    -6.267000000     1.825000000
H     2.997000000    -6.956000000     1.475000000
C     1.090000000    -6.203000000     1.095000000
O     0.959000000    -7.073000000     0.023000000
C     0.248000000    -6.835000000    -1.123000000
C     0.528000000    -5.789000000    -1.980000000
H     1.172000000    -4.996000000    -1.608000000
C    -0.627000000    -7.852000000    -1.547000000
H    -0.734000000    -8.670000000    -0.839000000
C    -1.253000000    -7.752000000    -2.777000000
H    -1.882000000    -8.577000000    -3.099000000
C    -0.907000000    -6.717000000    -3.650000000
H    -1.319000000    -6.641000000    -4.653000000
C    -0.042000000    -5.716000000    -3.195000000
O     0.134000000    -4.691000000    -4.033000000
C    -0.589000000    -3.539000000    -4.225000000
C    -0.486000000    -2.848000000    -5.472000000
H     0.175000000    -3.248000000    -6.237000000
C    -1.240000000    -1.728000000    -5.708000000
O    -1.091000000    -1.123000000    -6.983000000
C    -1.066000000     0.273000000    -7.089000000
C     0.055000000     0.964000000    -6.559000000
H     0.935000000     0.390000000    -6.281000000
C    -2.167000000     1.020000000    -7.521000000
H    -2.941000000     0.478000000    -8.060000000
C    -2.274000000     2.336000000    -7.256000000
H    -3.123000000     2.948000000    -7.548000000
C    -1.176000000     3.046000000    -6.704000000
H    -1.292000000     4.120000000    -6.585000000
C    -0.003000000     2.303000000    -6.399000000
O     1.146000000     2.940000000    -6.018000000
C     1.170000000     3.477000000    -4.738000000
C     2.458000000     3.975000000    -4.322000000
H     3.171000000     3.915000000    -5.140000000
C     2.656000000     4.525000000    -3.061000000
O     3.853000000     5.071000000    -2.800000000
C     4.263000000     5.214000000    -1.494000000
C     4.280000000     6.570000000    -1.033000000
H     4.111000000     7.359000000    -1.761000000
C     4.730000000     6.872000000     0.234000000
H     4.844000000     7.917000000     0.512000000
C     5.035000000     5.809000000     1.105000000
H     5.424000000     5.884000000     2.118000000
C     5.068000000     4.503000000     0.614000000
C     4.641000000     4.182000000    -0.682000000
H     4.469000000     3.170000000    -1.041000000
C     2.274000000    -2.409000000    -1.722000000
H     2.807000000    -3.355000000    -1.668000000
C     1.728000000    -1.885000000    -0.512000000
H     1.889000000    -2.433000000     0.412000000
C     0.969000000    -0.713000000    -0.501000000
H     0.655000000    -0.288000000     0.459000000
C     0.801000000    -0.027000000    -1.720000000
H     0.169000000     0.858000000    -1.738000000
C     1.259000000    -0.576000000    -2.908000000
H     1.032000000     0.000000000    -3.801000000
C     1.967000000    -1.748000000    -2.926000000
C     2.502000000    -2.108000000    -4.269000000
O     2.417000000    -1.400000000    -5.225000000
O     3.160000000    -3.139000000    -4.414000000
O     4.670000000    -3.940000000    -6.669000000
H     4.491000000    -4.786000000    -7.079000000
H     4.064000000    -3.898000000    -5.930000000
O     6.388000000     1.375000000    -1.017000000
H     5.546000000     1.143000000    -1.409000000
H     7.013000000     0.769000000    -1.416000000
O     8.257000000    -0.493000000    -5.055000000
H     8.119000000     0.160000000    -5.742000000
H     7.469000000    -1.036000000    -5.080000000
O     1.666000000    -7.268000000    -6.640000000
H     1.963000000    -8.051000000    -6.178000000
H     2.343000000    -6.614000000    -6.463000000
O     2.361000000    -2.585000000    -7.596000000
H     2.396000000    -2.306000000    -6.681000000
H     3.178000000    -3.065000000    -7.733000000
O     3.253000000    -5.879000000    -4.238000000
H     3.159000000    -4.933000000    -4.347000000
H     2.355000000    -6.209000000    -4.223000000
O     5.469000000    -1.014000000    -8.743000000
H     4.989000000    -0.205000000    -8.920000000
H     5.515000000    -1.062000000    -7.788000000
O     5.258000000    -1.120000000    -5.912000000
H     4.733000000    -0.724000000    -5.216000000
H     4.745000000    -1.875000000    -6.199000000
O     6.581000000    -4.934000000    -4.928000000
H     6.815000000    -5.634000000    -5.537000000
H     5.908000000    -4.432000000    -5.388000000
O     3.387000000     1.488000000    -5.505000000
H     3.139000000     0.567000000    -5.428000000
H     2.566000000     1.941000000    -5.699000000
O    -0.567000000    -6.068000000    -7.509000000
H     0.199000000    -6.428000000    -7.061000000
H    -0.259000000    -5.242000000    -7.883000000
O     7.375000000    -2.483000000     0.295000000
H     6.574000000    -2.331000000    -0.206000000
H     7.549000000    -3.418000000     0.190000000
O     4.994000000    -5.972000000    -2.140000000
H     5.652000000    -5.586000000    -2.717000000
H     4.178000000    -5.920000000    -2.637000000
O     4.003000000    -6.313000000    -8.204000000
H     4.778000000    -6.511000000    -8.729000000
H     3.275000000    -6.689000000    -8.699000000
O     2.057000000    -0.603000000    -9.338000000
H     2.057000000    -1.364000000    -8.758000000
H     2.445000000    -0.923000000   -10.153000000
O     1.192000000    -4.590000000    -8.909000000
H     1.668000000    -4.924000000    -9.669000000
H     1.704000000    -3.834000000    -8.620000000
O    -3.750000000    -3.988000000    -5.550000000
H    -4.619000000    -4.082000000    -5.941000000
H    -3.232000000    -3.547000000    -6.223000000
O     3.918000000     0.781000000    -2.073000000
H     3.421000000     0.098000000    -1.622000000
H     3.393000000     0.989000000    -2.845000000
O     5.919000000     3.211000000    -5.017000000
H     5.393000000     2.431000000    -5.191000000
H     6.611000000     2.908000000    -4.430000000
