215
-1471.59759
C     0.096000000    -5.665000000     1.546000000
H    -0.885000000    -5.800000000     1.097000000
C     0.292000000    -4.565000000     2.438000000
C     1.520000000    -4.427000000     3.014000000
H     1.644000000    -3.654000000     3.767000000
C    -0.813000000    -3.496000000     2.771000000
O    -2.141000000    -4.045000000     2.466000000
H    -0.679000000    -2.667000000     2.060000000
O    -0.766000000    -2.920000000     4.055000000
C    -1.029000000    -1.554000000     4.211000000
C     0.057000000    -0.681000000     4.392000000
H     1.075000000    -1.046000000     4.506000000
C    -0.107000000     0.715000000     4.488000000
O     0.971000000     1.505000000     4.545000000
C    -1.383000000     1.234000000     4.403000000
C    -1.588000000     2.707000000     4.552000000
H    -2.617000000     2.932000000     4.838000000
C    -1.401000000     3.455000000     3.246000000
C    -2.475000000     3.495000000     2.324000000
H    -3.450000000     3.132000000     2.640000000
H    -0.910000000     3.122000000     5.301000000
C    -2.455000000     0.336000000     4.326000000
H    -3.470000000     0.725000000     4.330000000
C    -2.313000000    -1.061000000     4.207000000
C    -3.588000000    -1.901000000     4.006000000
H    -4.464000000    -1.390000000     4.412000000
H    -3.410000000    -2.798000000     4.602000000
C    -3.807000000    -2.164000000     2.490000000
C    -4.496000000    -1.235000000     1.680000000
H    -5.102000000    -0.463000000     2.147000000
C    -3.042000000    -3.216000000     1.838000000
C    -3.110000000    -3.409000000     0.458000000
H    -2.473000000    -4.185000000     0.039000000
C    -3.916000000    -2.527000000    -0.311000000
O    -3.829000000    -2.582000000    -1.676000000
C    -2.986000000    -1.607000000    -2.284000000
C    -2.044000000    -2.159000000    -3.373000000
C    -1.862000000    -1.527000000    -4.584000000
H    -2.323000000    -0.548000000    -4.685000000
C    -1.343000000    -3.342000000    -3.181000000
H    -1.304000000    -3.774000000    -2.184000000
O    -3.719000000    -0.517000000    -2.849000000
H    -2.309000000    -1.213000000    -1.512000000
C    -4.591000000    -1.491000000     0.300000000
C    -5.436000000    -0.495000000    -0.525000000
H    -6.270000000    -0.164000000     0.099000000
H    -5.880000000    -0.941000000    -1.417000000
C    -4.545000000     0.720000000    -0.963000000
C    -4.552000000     1.903000000    -0.235000000
H    -4.940000000     1.900000000     0.781000000
C    -3.780000000     0.674000000    -2.139000000
C    -3.085000000     1.782000000    -2.576000000
H    -2.443000000     1.682000000    -3.448000000
C    -3.077000000     2.941000000    -1.854000000
O    -2.261000000     4.005000000    -2.179000000
C    -0.915000000     3.992000000    -1.584000000
C     0.134000000     4.042000000    -2.604000000
C    -0.062000000     3.785000000    -3.967000000
H    -1.070000000     3.579000000    -4.318000000
C     1.423000000     4.436000000    -2.198000000
H     1.638000000     4.598000000    -1.145000000
O    -0.723000000     4.989000000    -0.559000000
H    -0.828000000     2.987000000    -1.146000000
C    -3.798000000     2.987000000    -0.700000000
C    -3.615000000     4.208000000     0.283000000
H    -4.458000000     4.402000000     0.950000000
H    -3.495000000     5.119000000    -0.307000000
C    -2.332000000     4.069000000     1.119000000
C    -1.039000000     4.600000000     0.738000000
C     0.000000000     4.520000000     1.592000000
H     1.007000000     4.830000000     1.326000000
C    -0.168000000     3.963000000     2.855000000
O     1.035000000     3.595000000     3.458000000
C     1.424000000     2.222000000     3.410000000
H     0.970000000     1.723000000     2.541000000
C     2.954000000     2.148000000     3.290000000
C     3.595000000     0.949000000     3.365000000
H     3.042000000     0.027000000     3.525000000
C     3.682000000     3.271000000     2.858000000
H     3.191000000     4.224000000     2.676000000
C     4.916000000     3.119000000     2.371000000
O     5.557000000     4.080000000     1.672000000
C     5.604000000     1.924000000     2.525000000
H     6.623000000     1.888000000     2.147000000
C     4.923000000     0.813000000     2.969000000
O     5.469000000    -0.471000000     2.836000000
C     5.125000000    -1.640000000     3.570000000
C     4.703000000    -2.800000000     2.988000000
H     4.658000000    -2.838000000     1.903000000
C     5.087000000    -1.558000000     4.966000000
H     5.474000000    -0.646000000     5.414000000
C     4.713000000    -2.627000000     5.775000000
H     4.560000000    -2.468000000     6.839000000
C     4.425000000    -3.843000000     5.168000000
H     4.076000000    -4.717000000     5.712000000
C     4.323000000    -3.892000000     3.777000000
O     3.965000000    -4.994000000     3.033000000
C     2.649000000    -5.261000000     2.645000000
C     2.412000000    -6.357000000     1.808000000
H     3.234000000    -6.938000000     1.396000000
C     1.183000000    -6.467000000     1.222000000
O     0.875000000    -7.482000000     0.283000000
C     0.196000000    -7.224000000    -0.916000000
C     0.676000000    -6.245000000    -1.790000000
H     1.579000000    -5.681000000    -1.571000000
C    -0.844000000    -8.015000000    -1.271000000
H    -1.297000000    -8.749000000    -0.610000000
C    -1.533000000    -7.760000000    -2.436000000
H    -2.505000000    -8.211000000    -2.617000000
C    -1.174000000    -6.759000000    -3.300000000
H    -1.774000000    -6.580000000    -4.189000000
C    -0.080000000    -5.949000000    -2.931000000
O     0.329000000    -5.006000000    -3.791000000
C    -0.348000000    -3.814000000    -4.096000000
C    -0.114000000    -3.133000000    -5.303000000
H     0.592000000    -3.486000000    -6.050000000
C    -0.884000000    -1.982000000    -5.519000000
O    -0.531000000    -1.276000000    -6.662000000
C    -0.757000000     0.111000000    -6.839000000
C     0.119000000     1.053000000    -6.297000000
H     1.026000000     0.672000000    -5.833000000
C    -1.839000000     0.550000000    -7.536000000
H    -2.595000000    -0.105000000    -7.962000000
C    -2.035000000     1.887000000    -7.821000000
H    -2.897000000     2.235000000    -8.384000000
C    -1.082000000     2.812000000    -7.432000000
H    -1.200000000     3.844000000    -7.753000000
C    -0.070000000     2.410000000    -6.608000000
O     0.809000000     3.451000000    -6.193000000
C     1.015000000     3.732000000    -4.891000000
C     2.245000000     4.146000000    -4.464000000
H     3.049000000     4.120000000    -5.195000000
C     2.449000000     4.509000000    -3.165000000
O     3.735000000     4.829000000    -2.787000000
C     3.992000000     5.291000000    -1.420000000
C     3.714000000     6.624000000    -1.047000000
H     3.202000000     7.266000000    -1.759000000
C     3.924000000     7.054000000     0.310000000
H     3.693000000     8.086000000     0.561000000
C     4.605000000     6.177000000     1.165000000
H     4.895000000     6.441000000     2.178000000
C     4.946000000     4.913000000     0.746000000
C     4.609000000     4.444000000    -0.513000000
H     4.897000000     3.487000000    -0.942000000
C     2.223000000    -1.967000000    -1.767000000
H     2.249000000    -2.951000000    -2.228000000
C     1.395000000    -1.773000000    -0.734000000
H     0.834000000    -2.625000000    -0.359000000
C     1.170000000    -0.447000000    -0.233000000
H     0.509000000    -0.349000000     0.660000000
C     1.852000000     0.561000000    -0.770000000
H     1.704000000     1.549000000    -0.342000000
C     2.740000000     0.398000000    -1.835000000
H     3.249000000     1.257000000    -2.265000000
C     2.851000000    -0.908000000    -2.403000000
C     3.643000000    -1.133000000    -3.676000000
O     4.439000000    -0.252000000    -3.998000000
O     3.591000000    -2.228000000    -4.245000000
O     6.231000000    -1.583000000    -5.601000000
H     6.716000000    -0.775000000    -5.767000000
H     5.449000000    -1.300000000    -5.128000000
O     6.265000000    -3.488000000    -0.034000000
H     6.489000000    -4.384000000    -0.285000000
H     5.594000000    -3.224000000    -0.663000000
O     7.345000000     3.883000000    -2.623000000
H     7.743000000     4.181000000    -1.805000000
H     6.962000000     3.033000000    -2.406000000
O     3.163000000    -2.376000000    -6.964000000
H     3.621000000    -2.311000000    -6.126000000
H     2.992000000    -1.468000000    -7.215000000
O     3.168000000    -4.931000000    -4.381000000
H     3.220000000    -3.983000000    -4.498000000
H     2.242000000    -5.138000000    -4.507000000
O     4.660000000    -3.810000000    -2.036000000
H     4.769000000    -4.585000000    -2.587000000
H     4.273000000    -3.155000000    -2.617000000
O     2.086000000    -2.655000000   -10.044000000
H     2.076000000    -2.676000000    -9.087000000
H     2.967000000    -2.354000000   -10.268000000
O     9.000000000    -4.335000000    -3.460000000
H     8.731000000    -3.463000000    -3.169000000
H     8.419000000    -4.532000000    -4.195000000
O     6.632000000    -4.188000000    -5.492000000
H     6.065000000    -4.514000000    -6.191000000
H     6.431000000    -3.253000000    -5.438000000
O     4.803000000     1.613000000    -6.131000000
H     4.481000000     1.268000000    -5.298000000
H     5.756000000     1.557000000    -6.062000000
O     7.557000000    -2.071000000    -3.023000000
H     7.072000000    -1.806000000    -3.804000000
H     6.903000000    -2.077000000    -2.325000000
O     7.681000000     0.771000000    -5.979000000
H     8.171000000     1.309000000    -6.600000000
H     8.234000000     0.742000000    -5.198000000
O     5.256000000    -7.164000000    -4.241000000
H     4.710000000    -6.387000000    -4.118000000
H     4.634000000    -7.866000000    -4.432000000
O     3.995000000     3.459000000    -8.142000000
H     3.990000000     4.315000000    -7.713000000
H     4.027000000     2.830000000    -7.421000000
O     4.756000000    -4.981000000    -7.346000000
H     4.128000000    -5.479000000    -6.823000000
H     4.319000000    -4.146000000    -7.514000000
O     5.752000000    -0.263000000    -0.078000000
H     5.030000000    -0.520000000     0.496000000
H     6.524000000    -0.676000000     0.309000000
O     5.916000000    -0.075000000    -8.843000000
H     6.312000000     0.691000000    -9.259000000
H     5.678000000     0.226000000    -7.966000000
O     2.880000000     0.452000000    -7.720000000
H     3.559000000     1.056000000    -7.419000000
H     2.844000000     0.584000000    -8.667000000
O     6.066000000     1.442000000    -1.959000000
H     5.707000000     1.038000000    -2.749000000
H     5.992000000     0.764000000    -1.288000000
