215
-1450.65058
C    -0.249000000    -5.204000000     2.162000000
H    -1.313000000    -5.375000000     2.020000000
C     0.200000000    -4.043000000     2.722000000
C     1.589000000    -3.901000000     3.003000000
H     2.002000000    -3.085000000     3.590000000
C    -0.728000000    -2.794000000     2.947000000
O    -2.093000000    -3.329000000     2.929000000
H    -0.569000000    -2.064000000     2.139000000
O    -0.516000000    -2.171000000     4.217000000
C    -0.571000000    -0.824000000     4.264000000
C     0.550000000    -0.081000000     4.120000000
H     1.482000000    -0.640000000     4.127000000
C     0.584000000     1.296000000     4.122000000
O     1.741000000     1.905000000     3.888000000
C    -0.605000000     1.988000000     4.255000000
C    -0.549000000     3.530000000     4.258000000
H    -1.382000000     3.930000000     4.840000000
C    -0.637000000     3.935000000     2.769000000
C    -1.890000000     4.054000000     2.177000000
H    -2.744000000     3.840000000     2.814000000
H     0.389000000     3.872000000     4.701000000
C    -1.801000000     1.257000000     4.467000000
H    -2.727000000     1.767000000     4.719000000
C    -1.770000000    -0.130000000     4.490000000
C    -3.088000000    -0.828000000     4.505000000
H    -3.800000000    -0.316000000     5.157000000
H    -2.971000000    -1.743000000     5.089000000
C    -3.528000000    -1.281000000     3.063000000
C    -4.551000000    -0.530000000     2.438000000
H    -4.902000000     0.292000000     3.057000000
C    -3.090000000    -2.460000000     2.459000000
C    -3.537000000    -2.793000000     1.177000000
H    -3.027000000    -3.583000000     0.631000000
C    -4.354000000    -1.934000000     0.494000000
O    -4.477000000    -2.172000000    -0.788000000
C    -3.645000000    -1.398000000    -1.633000000
C    -3.063000000    -2.298000000    -2.773000000
C    -2.642000000    -1.808000000    -4.027000000
H    -2.771000000    -0.775000000    -4.338000000
C    -2.754000000    -3.575000000    -2.495000000
H    -3.254000000    -4.085000000    -1.676000000
O    -4.554000000    -0.406000000    -2.190000000
H    -2.832000000    -0.914000000    -1.073000000
C    -4.938000000    -0.820000000     1.124000000
C    -5.843000000     0.152000000     0.340000000
H    -6.490000000     0.611000000     1.091000000
H    -6.449000000    -0.370000000    -0.404000000
C    -5.028000000     1.175000000    -0.438000000
C    -4.626000000     2.355000000     0.141000000
H    -5.148000000     2.502000000     1.083000000
C    -4.422000000     0.863000000    -1.639000000
C    -3.565000000     1.763000000    -2.261000000
H    -3.101000000     1.461000000    -3.196000000
C    -3.129000000     2.931000000    -1.701000000
O    -2.220000000     3.671000000    -2.416000000
C    -0.873000000     3.824000000    -1.928000000
C     0.152000000     3.687000000    -3.035000000
C     0.107000000     2.614000000    -3.898000000
H    -0.680000000     1.867000000    -3.957000000
C     1.219000000     4.593000000    -2.916000000
H     1.226000000     5.438000000    -2.232000000
O    -0.876000000     5.028000000    -1.087000000
H    -0.712000000     2.900000000    -1.354000000
C    -3.730000000     3.291000000    -0.478000000
C    -3.328000000     4.604000000     0.159000000
H    -4.068000000     4.927000000     0.894000000
H    -3.340000000     5.339000000    -0.649000000
C    -2.017000000     4.565000000     0.889000000
C    -0.841000000     4.894000000     0.270000000
C     0.450000000     4.681000000     0.780000000
H     1.298000000     5.017000000     0.189000000
C     0.549000000     4.230000000     2.092000000
O     1.760000000     3.824000000     2.588000000
C     2.116000000     2.448000000     2.622000000
H     1.499000000     1.939000000     1.867000000
C     3.609000000     2.059000000     2.271000000
C     4.281000000     0.913000000     2.725000000
H     3.726000000     0.269000000     3.402000000
C     4.216000000     2.905000000     1.400000000
H     3.702000000     3.786000000     1.023000000
C     5.479000000     2.670000000     0.997000000
O     6.034000000     3.480000000     0.027000000
C     6.169000000     1.550000000     1.415000000
H     7.170000000     1.376000000     1.027000000
C     5.560000000     0.624000000     2.290000000
O     6.287000000    -0.541000000     2.529000000
C     5.692000000    -1.593000000     3.246000000
C     4.974000000    -2.586000000     2.645000000
H     4.824000000    -2.479000000     1.574000000
C     6.035000000    -1.694000000     4.603000000
H     6.659000000    -0.995000000     5.154000000
C     5.656000000    -2.833000000     5.315000000
H     5.927000000    -2.868000000     6.367000000
C     4.760000000    -3.726000000     4.789000000
H     4.468000000    -4.585000000     5.387000000
C     4.386000000    -3.599000000     3.470000000
O     3.871000000    -4.796000000     2.881000000
C     2.492000000    -4.903000000     2.638000000
C     2.020000000    -6.062000000     1.929000000
H     2.657000000    -6.890000000     1.628000000
C     0.667000000    -6.120000000     1.681000000
O     0.160000000    -7.200000000     1.029000000
C    -0.831000000    -7.183000000     0.130000000
C    -0.749000000    -6.331000000    -0.950000000
H     0.143000000    -5.757000000    -1.190000000
C    -1.955000000    -8.019000000     0.277000000
H    -2.002000000    -8.720000000     1.106000000
C    -2.954000000    -7.956000000    -0.694000000
H    -3.802000000    -8.626000000    -0.580000000
C    -2.907000000    -7.084000000    -1.763000000
H    -3.678000000    -7.189000000    -2.522000000
C    -1.780000000    -6.334000000    -1.932000000
O    -1.506000000    -5.689000000    -3.110000000
C    -1.929000000    -4.364000000    -3.376000000
C    -1.662000000    -3.888000000    -4.676000000
H    -1.061000000    -4.423000000    -5.406000000
C    -1.977000000    -2.596000000    -4.985000000
O    -1.969000000    -2.223000000    -6.321000000
C    -1.226000000    -1.168000000    -6.659000000
C    -0.264000000    -0.507000000    -5.885000000
H     0.038000000    -0.863000000    -4.903000000
C    -1.705000000    -0.509000000    -7.805000000
H    -2.417000000    -1.091000000    -8.383000000
C    -1.106000000     0.635000000    -8.384000000
H    -1.462000000     1.164000000    -9.264000000
C    -0.118000000     1.310000000    -7.571000000
H     0.313000000     2.245000000    -7.919000000
C     0.205000000     0.763000000    -6.297000000
O     1.319000000     1.296000000    -5.568000000
C     1.189000000     2.389000000    -4.729000000
C     2.355000000     3.185000000    -4.680000000
H     3.175000000     3.064000000    -5.383000000
C     2.294000000     4.279000000    -3.778000000
O     3.406000000     5.120000000    -3.710000000
C     4.077000000     5.340000000    -2.560000000
C     3.942000000     6.530000000    -1.917000000
H     3.208000000     7.275000000    -2.214000000
C     4.682000000     6.791000000    -0.766000000
H     4.653000000     7.766000000    -0.288000000
C     5.399000000     5.806000000    -0.172000000
H     5.780000000     6.052000000     0.816000000
C     5.405000000     4.564000000    -0.680000000
C     4.737000000     4.363000000    -1.857000000
H     4.760000000     3.329000000    -2.191000000
C     0.797000000    -1.295000000    -1.669000000
H     0.468000000    -2.235000000    -2.105000000
C     0.110000000    -0.637000000    -0.633000000
H    -0.710000000    -1.067000000    -0.063000000
C     0.414000000     0.670000000    -0.329000000
H    -0.182000000     1.115000000     0.425000000
C     1.593000000     1.248000000    -0.874000000
H     1.930000000     2.201000000    -0.476000000
C     2.359000000     0.495000000    -1.793000000
H     3.348000000     0.904000000    -1.987000000
C     1.918000000    -0.725000000    -2.280000000
C     2.815000000    -1.528000000    -3.139000000
O     3.907000000    -1.053000000    -3.534000000
O     2.485000000    -2.658000000    -3.505000000
O     3.291000000    -6.631000000    -0.909000000
H     3.985000000    -5.988000000    -0.759000000
H     2.726000000    -6.224000000    -1.566000000
O     4.621000000    -3.703000000    -4.582000000
H     4.522000000    -3.260000000    -5.425000000
H     3.898000000    -3.368000000    -4.050000000
O     6.595000000    -5.129000000     0.662000000
H     5.820000000    -4.848000000     0.175000000
H     6.312000000    -5.138000000     1.577000000
O     8.024000000    -3.120000000    -0.315000000
H     7.443000000    -3.130000000    -1.076000000
H     7.619000000    -3.728000000     0.303000000
O     7.048000000     0.844000000    -2.013000000
H     7.387000000     1.739000000    -2.020000000
H     6.927000000     0.625000000    -2.937000000
O     1.580000000    -6.460000000    -5.049000000
H     1.917000000    -7.318000000    -4.789000000
H     1.029000000    -6.640000000    -5.811000000
O     1.987000000    -3.724000000    -5.922000000
H     2.068000000    -3.169000000    -5.147000000
H     2.154000000    -4.610000000    -5.601000000
O     1.973000000    -5.158000000    -2.680000000
H     1.977000000    -4.238000000    -2.944000000
H     1.665000000    -5.629000000    -3.455000000
O     4.674000000    -3.847000000    -0.749000000
H     3.737000000    -3.709000000    -0.889000000
H     5.076000000    -3.007000000    -0.971000000
O     1.240000000    -3.654000000    -8.452000000
H     1.399000000    -3.650000000    -7.508000000
H     1.648000000    -2.846000000    -8.766000000
O     6.902000000    -4.667000000    -2.972000000
H     5.995000000    -4.511000000    -3.233000000
H     7.405000000    -4.007000000    -3.449000000
O     3.976000000    -1.091000000    -6.084000000
H     3.823000000    -1.073000000    -5.139000000
H     4.270000000    -0.205000000    -6.296000000
O     7.050000000    -0.942000000    -6.825000000
H     6.512000000    -1.658000000    -7.162000000
H     6.756000000    -0.172000000    -7.311000000
O     4.718000000    -3.472000000    -7.723000000
H     3.878000000    -3.101000000    -7.454000000
H     4.692000000    -4.376000000    -7.410000000
O     6.437000000     2.744000000    -4.515000000
H     6.777000000     3.074000000    -5.347000000
H     6.350000000     1.800000000    -4.649000000
O     2.095000000    -1.082000000    -8.126000000
H     2.378000000    -0.809000000    -7.253000000
H     1.890000000    -0.264000000    -8.578000000
O     4.465000000    -5.875000000    -6.704000000
H     4.049000000    -5.445000000    -5.957000000
H     3.895000000    -6.618000000    -6.900000000
O     5.833000000    -1.607000000    -1.528000000
H     5.225000000    -1.608000000    -2.267000000
H     6.047000000    -0.683000000    -1.395000000
O     6.439000000     0.125000000    -4.510000000
H     5.809000000    -0.468000000    -4.100000000
H     6.739000000    -0.345000000    -5.287000000
