215
-1481.54003
C     0.541000000    -4.532000000     1.368000000
H    -0.302000000    -4.637000000     0.690000000
C     0.469000000    -3.775000000     2.597000000
C     1.656000000    -3.530000000     3.369000000
H     1.696000000    -2.881000000     4.240000000
C    -0.817000000    -3.097000000     2.888000000
O    -2.076000000    -3.783000000     2.677000000
H    -0.823000000    -2.255000000     2.180000000
O    -0.723000000    -2.479000000     4.213000000
C    -1.007000000    -1.100000000     4.302000000
C     0.085000000    -0.277000000     4.354000000
H     1.119000000    -0.605000000     4.298000000
C    -0.158000000     1.059000000     4.498000000
O     0.932000000     1.862000000     4.395000000
C    -1.478000000     1.644000000     4.371000000
C    -1.742000000     3.179000000     4.378000000
H    -2.755000000     3.372000000     4.738000000
C    -1.579000000     3.731000000     2.974000000
C    -2.709000000     3.779000000     2.135000000
H    -3.649000000     3.421000000     2.547000000
H    -1.029000000     3.701000000     5.020000000
C    -2.545000000     0.749000000     4.269000000
H    -3.539000000     1.189000000     4.266000000
C    -2.323000000    -0.629000000     4.209000000
C    -3.556000000    -1.521000000     4.068000000
H    -4.546000000    -1.132000000     4.312000000
H    -3.485000000    -2.450000000     4.637000000
C    -3.634000000    -1.883000000     2.605000000
C    -4.583000000    -1.168000000     1.815000000
H    -5.135000000    -0.309000000     2.188000000
C    -3.049000000    -3.038000000     2.006000000
C    -3.225000000    -3.350000000     0.648000000
H    -2.677000000    -4.176000000     0.201000000
C    -4.081000000    -2.542000000    -0.081000000
O    -4.070000000    -2.749000000    -1.390000000
C    -3.180000000    -1.940000000    -2.283000000
C    -2.542000000    -2.776000000    -3.370000000
C    -1.864000000    -2.127000000    -4.374000000
H    -1.973000000    -1.051000000    -4.485000000
C    -2.381000000    -4.101000000    -3.160000000
H    -2.941000000    -4.632000000    -2.394000000
O    -3.896000000    -0.749000000    -2.847000000
H    -2.360000000    -1.617000000    -1.625000000
C    -4.690000000    -1.444000000     0.463000000
C    -5.505000000    -0.511000000    -0.492000000
H    -6.391000000    -0.169000000     0.047000000
H    -5.954000000    -1.127000000    -1.274000000
C    -4.612000000     0.589000000    -0.993000000
C    -4.525000000     1.821000000    -0.347000000
H    -4.926000000     2.007000000     0.646000000
C    -3.884000000     0.456000000    -2.202000000
C    -3.127000000     1.479000000    -2.715000000
H    -2.634000000     1.293000000    -3.666000000
C    -3.156000000     2.726000000    -2.075000000
O    -2.351000000     3.638000000    -2.616000000
C    -1.100000000     3.790000000    -1.984000000
C     0.008000000     3.998000000    -3.035000000
C    -0.005000000     3.083000000    -4.144000000
H    -0.689000000     2.237000000    -4.143000000
C     1.104000000     4.891000000    -2.831000000
H     1.224000000     5.541000000    -1.969000000
O    -1.119000000     4.905000000    -0.987000000
H    -0.836000000     2.864000000    -1.451000000
C    -3.866000000     2.906000000    -0.872000000
C    -3.821000000     4.187000000    -0.072000000
H    -4.755000000     4.326000000     0.476000000
H    -3.672000000     5.022000000    -0.761000000
C    -2.634000000     4.206000000     0.817000000
C    -1.393000000     4.607000000     0.345000000
C    -0.316000000     4.684000000     1.217000000
H     0.661000000     4.948000000     0.821000000
C    -0.344000000     4.151000000     2.531000000
O     0.865000000     3.867000000     3.148000000
C     1.178000000     2.488000000     3.092000000
H     0.482000000     2.022000000     2.380000000
C     2.661000000     2.333000000     2.850000000
C     3.443000000     1.358000000     3.524000000
H     3.057000000     0.929000000     4.445000000
C     3.208000000     3.008000000     1.733000000
H     2.571000000     3.629000000     1.108000000
C     4.525000000     2.708000000     1.335000000
O     5.181000000     3.355000000     0.244000000
C     5.286000000     1.775000000     2.110000000
H     6.354000000     1.642000000     1.958000000
C     4.742000000     1.145000000     3.186000000
O     5.613000000     0.339000000     3.911000000
C     5.214000000    -0.792000000     4.566000000
C     4.677000000    -1.821000000     3.833000000
H     4.549000000    -1.629000000     2.770000000
C     5.554000000    -0.929000000     5.898000000
H     6.123000000    -0.148000000     6.395000000
C     5.229000000    -2.074000000     6.588000000
H     5.441000000    -2.288000000     7.632000000
C     4.574000000    -3.097000000     5.820000000
H     4.471000000    -4.056000000     6.322000000
C     4.358000000    -3.018000000     4.429000000
O     3.988000000    -4.060000000     3.663000000
C     2.793000000    -4.186000000     2.993000000
C     2.809000000    -5.078000000     1.883000000
H     3.738000000    -5.560000000     1.590000000
C     1.715000000    -5.223000000     1.045000000
O     1.894000000    -6.044000000    -0.061000000
C     0.869000000    -6.611000000    -0.694000000
C     0.325000000    -6.085000000    -1.879000000
H     0.777000000    -5.177000000    -2.268000000
C     0.318000000    -7.783000000    -0.191000000
H     0.585000000    -8.171000000     0.789000000
C    -0.789000000    -8.389000000    -0.832000000
H    -1.244000000    -9.255000000    -0.360000000
C    -1.244000000    -7.925000000    -2.020000000
H    -2.099000000    -8.392000000    -2.503000000
C    -0.734000000    -6.712000000    -2.530000000
O    -1.299000000    -6.151000000    -3.660000000
C    -1.498000000    -4.807000000    -3.960000000
C    -0.771000000    -4.195000000    -4.976000000
H     0.032000000    -4.694000000    -5.512000000
C    -0.948000000    -2.820000000    -5.188000000
O    -0.077000000    -2.202000000    -6.097000000
C    -0.347000000    -0.896000000    -6.561000000
C     0.502000000     0.047000000    -6.153000000
H     1.310000000    -0.270000000    -5.499000000
C    -1.535000000    -0.574000000    -7.246000000
H    -2.324000000    -1.298000000    -7.435000000
C    -1.772000000     0.751000000    -7.679000000
H    -2.652000000     1.002000000    -8.264000000
C    -0.862000000     1.696000000    -7.315000000
H    -0.926000000     2.750000000    -7.575000000
C     0.217000000     1.356000000    -6.447000000
O     1.132000000     2.268000000    -6.156000000
C     1.066000000     3.111000000    -5.053000000
C     2.128000000     3.908000000    -4.777000000
H     2.987000000     3.906000000    -5.443000000
C     2.111000000     4.796000000    -3.734000000
O     3.261000000     5.587000000    -3.546000000
C     3.954000000     5.640000000    -2.316000000
C     4.335000000     6.880000000    -1.723000000
H     4.292000000     7.825000000    -2.259000000
C     4.933000000     6.873000000    -0.504000000
H     5.280000000     7.804000000    -0.064000000
C     5.091000000     5.666000000     0.184000000
H     5.625000000     5.671000000     1.131000000
C     4.742000000     4.468000000    -0.383000000
C     4.222000000     4.431000000    -1.659000000
H     4.028000000     3.490000000    -2.166000000
C     0.901000000    -1.558000000    -1.418000000
H     1.150000000    -2.443000000    -1.998000000
C    -0.089000000    -1.590000000    -0.448000000
H    -0.566000000    -2.536000000    -0.206000000
C    -0.493000000    -0.386000000     0.128000000
H    -1.271000000    -0.334000000     0.940000000
C     0.155000000     0.804000000    -0.206000000
H    -0.100000000     1.739000000     0.287000000
C     1.147000000     0.880000000    -1.188000000
H     1.563000000     1.832000000    -1.507000000
C     1.579000000    -0.336000000    -1.732000000
C     2.737000000    -0.290000000    -2.640000000
O     3.659000000     0.506000000    -2.496000000
O     2.837000000    -1.240000000    -3.423000000
O     7.725000000    -3.988000000    -2.342000000
H     7.860000000    -3.300000000    -2.993000000
H     8.228000000    -3.700000000    -1.580000000
O     7.464000000    -1.173000000     0.534000000
H     6.674000000    -0.779000000     0.164000000
H     7.239000000    -2.096000000     0.651000000
O     5.311000000    -0.055000000    -0.520000000
H     4.677000000     0.218000000    -1.184000000
H     4.918000000    -0.829000000    -0.117000000
O     6.776000000     3.790000000    -3.232000000
H     7.042000000     3.224000000    -2.508000000
H     5.985000000     3.378000000    -3.580000000
O     2.961000000    -3.874000000    -3.746000000
H     3.606000000    -4.022000000    -3.054000000
H     2.724000000    -2.951000000    -3.659000000
O     4.796000000    -3.535000000    -8.073000000
H     4.644000000    -2.781000000    -7.503000000
H     5.693000000    -3.421000000    -8.387000000
O     3.900000000    -1.734000000    -5.820000000
H     3.397000000    -1.541000000    -5.030000000
H     4.269000000    -0.890000000    -6.082000000
O     4.962000000    -4.608000000    -2.112000000
H     5.485000000    -4.255000000    -2.832000000
H     5.416000000    -5.412000000    -1.859000000
O     1.827000000    -4.293000000    -7.164000000
H     1.294000000    -3.500000000    -7.128000000
H     2.533000000    -4.136000000    -6.536000000
O     7.912000000    -2.018000000    -4.711000000
H     7.585000000    -1.218000000    -4.298000000
H     8.656000000    -1.728000000    -5.238000000
O     8.938000000     0.204000000    -3.431000000
H     8.167000000     0.707000000    -3.694000000
H     8.823000000     0.064000000    -2.491000000
O     7.149000000     1.698000000    -1.620000000
H     6.382000000     1.161000000    -1.423000000
H     7.638000000     1.728000000    -0.798000000
O     5.651000000    -3.480000000    -4.539000000
H     4.930000000    -2.986000000    -4.929000000
H     6.419000000    -2.922000000    -4.661000000
O     5.897000000    -0.670000000    -3.394000000
H     4.948000000    -0.545000000    -3.424000000
H     6.068000000    -0.990000000    -2.508000000
O     2.799000000    -6.406000000    -4.633000000
H     2.653000000    -5.463000000    -4.715000000
H     3.507000000    -6.483000000    -3.993000000
O     5.517000000     4.020000000    -6.877000000
H     6.159000000     3.569000000    -7.425000000
H     5.597000000     3.601000000    -6.020000000
O     4.616000000    -2.584000000    -0.168000000
H     5.004000000    -3.362000000    -0.567000000
H     3.675000000    -2.759000000    -0.166000000
O     5.356000000     0.649000000    -7.233000000
H     6.034000000     1.220000000    -7.594000000
H     4.777000000     0.466000000    -7.973000000
O     5.028000000     2.207000000    -4.791000000
H     4.492000000     1.737000000    -4.153000000
H     5.378000000     1.522000000    -5.361000000
