215
-1465.01508
C     1.919000000    -5.006000000     2.390000000
H     1.115000000    -5.622000000     1.996000000
C     1.782000000    -3.783000000     3.033000000
C     2.941000000    -3.046000000     3.317000000
H     2.965000000    -2.041000000     3.732000000
C     0.389000000    -3.163000000     3.140000000
O    -0.640000000    -4.133000000     3.106000000
H     0.183000000    -2.506000000     2.282000000
O     0.340000000    -2.363000000     4.359000000
C    -0.365000000    -1.153000000     4.483000000
C     0.350000000     0.042000000     4.417000000
H     1.437000000     0.079000000     4.432000000
C    -0.391000000     1.210000000     4.337000000
O     0.353000000     2.355000000     4.337000000
C    -1.817000000     1.245000000     4.387000000
C    -2.565000000     2.557000000     4.409000000
H    -3.570000000     2.442000000     4.821000000
C    -2.599000000     3.163000000     3.002000000
C    -3.737000000     2.894000000     2.223000000
H    -4.514000000     2.232000000     2.597000000
H    -2.075000000     3.210000000     5.134000000
C    -2.484000000     0.027000000     4.311000000
H    -3.570000000    -0.021000000     4.274000000
C    -1.785000000    -1.180000000     4.468000000
C    -2.582000000    -2.491000000     4.457000000
H    -3.509000000    -2.393000000     5.026000000
H    -1.988000000    -3.202000000     5.035000000
C    -2.771000000    -3.085000000     3.091000000
C    -3.857000000    -2.643000000     2.299000000
H    -4.699000000    -2.147000000     2.776000000
C    -1.793000000    -3.852000000     2.475000000
C    -1.833000000    -4.163000000     1.164000000
H    -1.077000000    -4.769000000     0.672000000
C    -2.866000000    -3.632000000     0.393000000
O    -2.762000000    -3.748000000    -0.973000000
C    -2.197000000    -2.637000000    -1.734000000
C    -1.290000000    -3.253000000    -2.783000000
C    -1.373000000    -2.905000000    -4.177000000
H    -2.222000000    -2.333000000    -4.545000000
C    -0.331000000    -4.193000000    -2.485000000
H    -0.175000000    -4.468000000    -1.445000000
O    -3.374000000    -2.006000000    -2.467000000
H    -1.584000000    -2.000000000    -1.080000000
C    -3.846000000    -2.863000000     0.949000000
C    -4.890000000    -2.316000000     0.004000000
H    -5.836000000    -2.215000000     0.539000000
H    -5.192000000    -2.968000000    -0.819000000
C    -4.660000000    -0.940000000    -0.641000000
C    -4.836000000     0.278000000    -0.009000000
H    -5.187000000     0.298000000     1.020000000
C    -3.885000000    -0.878000000    -1.834000000
C    -3.556000000     0.255000000    -2.490000000
H    -3.177000000     0.198000000    -3.507000000
C    -3.967000000     1.462000000    -1.915000000
O    -3.392000000     2.566000000    -2.487000000
C    -2.179000000     3.009000000    -1.802000000
C    -1.085000000     3.382000000    -2.844000000
C    -0.857000000     2.456000000    -3.865000000
H    -1.349000000     1.487000000    -3.853000000
C    -0.399000000     4.554000000    -2.766000000
H    -0.657000000     5.179000000    -1.914000000
O    -2.537000000     4.132000000    -1.031000000
H    -1.812000000     2.112000000    -1.282000000
C    -4.535000000     1.511000000    -0.670000000
C    -4.956000000     2.838000000    -0.023000000
H    -5.882000000     2.632000000     0.518000000
H    -5.151000000     3.501000000    -0.869000000
C    -3.775000000     3.209000000     0.858000000
C    -2.659000000     3.962000000     0.349000000
C    -1.644000000     4.397000000     1.150000000
H    -0.943000000     5.098000000     0.704000000
C    -1.590000000     3.952000000     2.483000000
O    -0.418000000     4.162000000     3.130000000
C     0.509000000     3.038000000     3.074000000
H     0.058000000     2.299000000     2.396000000
C     1.907000000     3.483000000     2.628000000
C     2.842000000     2.482000000     2.393000000
H     2.731000000     1.432000000     2.650000000
C     2.149000000     4.761000000     2.028000000
H     1.495000000     5.629000000     2.059000000
C     3.362000000     4.961000000     1.364000000
O     3.593000000     6.194000000     0.750000000
C     4.368000000     3.998000000     1.270000000
H     5.310000000     4.276000000     0.803000000
C     4.141000000     2.753000000     1.861000000
O     5.091000000     1.780000000     1.802000000
C     5.219000000     0.814000000     2.775000000
C     5.184000000    -0.562000000     2.517000000
H     5.129000000    -0.949000000     1.503000000
C     5.144000000     1.172000000     4.143000000
H     5.081000000     2.227000000     4.397000000
C     5.276000000     0.297000000     5.179000000
H     5.205000000     0.712000000     6.181000000
C     5.420000000    -1.062000000     4.896000000
H     5.463000000    -1.794000000     5.698000000
C     5.411000000    -1.473000000     3.549000000
O     5.368000000    -2.837000000     3.339000000
C     4.202000000    -3.513000000     2.919000000
C     4.373000000    -4.759000000     2.439000000
H     5.358000000    -5.190000000     2.284000000
C     3.210000000    -5.449000000     2.098000000
O     3.278000000    -6.685000000     1.359000000
C     2.636000000    -6.973000000     0.146000000
C     2.400000000    -5.936000000    -0.787000000
H     2.743000000    -4.945000000    -0.499000000
C     2.345000000    -8.255000000    -0.217000000
H     2.403000000    -9.037000000     0.535000000
C     1.716000000    -8.521000000    -1.396000000
H     1.345000000    -9.493000000    -1.710000000
C     1.605000000    -7.486000000    -2.351000000
H     1.191000000    -7.713000000    -3.330000000
C     1.835000000    -6.188000000    -2.034000000
O     1.817000000    -5.269000000    -2.991000000
C     0.694000000    -4.528000000    -3.356000000
C     0.661000000    -4.014000000    -4.658000000
H     1.362000000    -4.360000000    -5.413000000
C    -0.418000000    -3.251000000    -5.103000000
O    -0.539000000    -2.816000000    -6.402000000
C    -0.641000000    -1.512000000    -6.846000000
C     0.028000000    -0.466000000    -6.119000000
H     0.647000000    -0.740000000    -5.269000000
C    -1.602000000    -1.187000000    -7.792000000
H    -2.200000000    -1.998000000    -8.199000000
C    -1.935000000     0.170000000    -8.038000000
H    -2.626000000     0.478000000    -8.819000000
C    -1.268000000     1.173000000    -7.407000000
H    -1.483000000     2.201000000    -7.687000000
C    -0.235000000     0.859000000    -6.423000000
O     0.442000000     1.824000000    -5.769000000
C     0.085000000     2.731000000    -4.857000000
C     0.837000000     3.919000000    -4.702000000
H     1.651000000     4.087000000    -5.403000000
C     0.637000000     4.821000000    -3.635000000
O     1.440000000     5.982000000    -3.544000000
C     1.613000000     6.666000000    -2.301000000
C     1.464000000     8.061000000    -2.288000000
H     1.017000000     8.574000000    -3.136000000
C     1.777000000     8.769000000    -1.157000000
H     1.584000000     9.838000000    -1.111000000
C     2.396000000     8.108000000    -0.084000000
H     2.870000000     8.644000000     0.735000000
C     2.669000000     6.760000000    -0.144000000
C     2.169000000     6.002000000    -1.196000000
H     2.479000000     4.975000000    -1.370000000
C     1.715000000    -0.886000000    -1.218000000
H     2.066000000    -1.844000000    -1.593000000
C     0.748000000    -0.822000000    -0.186000000
H     0.282000000    -1.734000000     0.178000000
C     0.188000000     0.387000000     0.270000000
H    -0.582000000     0.431000000     1.098000000
C     0.618000000     1.546000000    -0.301000000
H     0.108000000     2.479000000    -0.074000000
C     1.601000000     1.526000000    -1.260000000
H     1.897000000     2.452000000    -1.747000000
C     2.145000000     0.345000000    -1.736000000
C     3.298000000     0.340000000    -2.713000000
O     3.596000000     1.382000000    -3.258000000
O     3.800000000    -0.720000000    -3.123000000
O     7.823000000    -2.683000000     0.401000000
H     6.999000000    -2.262000000     0.156000000
H     8.424000000    -1.956000000     0.563000000
O     7.930000000    -1.052000000    -3.132000000
H     7.319000000    -0.554000000    -3.674000000
H     7.460000000    -1.194000000    -2.310000000
O     6.294000000     0.868000000    -4.078000000
H     6.363000000     1.810000000    -4.238000000
H     5.368000000     0.725000000    -3.886000000
O     7.321000000     0.361000000    -7.063000000
H     6.731000000     0.284000000    -6.313000000
H     6.751000000     0.605000000    -7.792000000
O     3.882000000    -0.715000000    -5.716000000
H     4.048000000     0.220000000    -5.839000000
H     3.824000000    -0.825000000    -4.767000000
O     3.131000000     2.114000000    -5.700000000
H     3.267000000     2.014000000    -4.758000000
H     2.318000000     1.640000000    -5.876000000
O     4.608000000    -4.801000000    -2.792000000
H     3.900000000    -4.158000000    -2.836000000
H     4.171000000    -5.625000000    -2.579000000
O     2.461000000     4.065000000    -7.712000000
H     2.866000000     3.443000000    -7.108000000
H     2.900000000     4.896000000    -7.531000000
O     5.717000000    -1.049000000    -1.074000000
H     5.090000000    -0.905000000    -1.783000000
H     5.926000000    -0.171000000    -0.756000000
O     3.329000000    -2.963000000    -7.623000000
H     3.037000000    -2.188000000    -7.145000000
H     3.454000000    -3.629000000    -6.947000000
O     9.754000000     1.199000000    -3.052000000
H     9.052000000     0.592000000    -3.288000000
H     9.638000000     1.941000000    -3.645000000
O     4.864000000     5.813000000    -3.605000000
H     4.584000000     5.077000000    -3.060000000
H     4.413000000     6.571000000    -3.233000000
O     4.465000000    -5.533000000    -5.451000000
H     5.095000000    -4.929000000    -5.845000000
H     4.464000000    -5.306000000    -4.521000000
O     7.513000000     3.313000000     0.473000000
H     7.711000000     3.251000000     1.407000000
H     7.589000000     4.245000000     0.273000000
O     5.623000000    -2.861000000    -5.612000000
H     5.400000000    -2.917000000    -4.683000000
H     5.125000000    -2.110000000    -5.934000000
O     6.188000000     1.734000000    -1.107000000
H     6.661000000     1.966000000    -1.906000000
H     6.609000000     2.252000000    -0.421000000
O     4.585000000    -0.206000000    -8.787000000
H     3.653000000    -0.224000000    -9.005000000
H     4.764000000    -1.075000000    -8.428000000
O     6.785000000     3.908000000    -4.629000000
H     6.048000000     4.170000000    -4.077000000
H     6.575000000     4.262000000    -5.493000000
O     4.331000000     3.676000000    -2.072000000
H     4.117000000     2.916000000    -2.612000000
H     4.918000000     3.334000000    -1.398000000
