215
-1450.93032
C     1.246000000    -5.008000000     2.259000000
H     0.479000000    -5.452000000     1.631000000
C     0.978000000    -3.866000000     2.992000000
C     2.039000000    -3.207000000     3.638000000
H     1.936000000    -2.303000000     4.232000000
C    -0.356000000    -3.237000000     2.995000000
O    -1.489000000    -4.081000000     2.723000000
H    -0.333000000    -2.457000000     2.220000000
O    -0.655000000    -2.583000000     4.218000000
C    -1.151000000    -1.300000000     4.164000000
C    -0.223000000    -0.269000000     4.319000000
H     0.855000000    -0.404000000     4.357000000
C    -0.690000000     1.042000000     4.246000000
O     0.251000000     2.072000000     4.431000000
C    -2.024000000     1.310000000     4.019000000
C    -2.543000000     2.727000000     4.018000000
H    -3.582000000     2.452000000     4.215000000
C    -2.403000000     3.276000000     2.586000000
C    -3.462000000     3.098000000     1.692000000
H    -4.340000000     2.545000000     2.015000000
H    -2.271000000     3.380000000     4.850000000
C    -2.921000000     0.249000000     3.951000000
H    -3.992000000     0.434000000     3.970000000
C    -2.525000000    -1.094000000     4.010000000
C    -3.511000000    -2.178000000     3.715000000
H    -4.495000000    -1.707000000     3.766000000
H    -3.507000000    -2.938000000     4.499000000
C    -3.402000000    -2.699000000     2.302000000
C    -4.285000000    -2.192000000     1.399000000
H    -4.911000000    -1.365000000     1.725000000
C    -2.435000000    -3.583000000     1.822000000
C    -2.455000000    -4.054000000     0.556000000
H    -1.723000000    -4.770000000     0.193000000
C    -3.304000000    -3.463000000    -0.379000000
O    -2.975000000    -3.606000000    -1.675000000
C    -2.356000000    -2.524000000    -2.394000000
C    -1.140000000    -2.948000000    -3.267000000
C    -0.727000000    -2.169000000    -4.402000000
H    -1.326000000    -1.268000000    -4.507000000
C    -0.367000000    -3.986000000    -2.830000000
H    -0.621000000    -4.461000000    -1.886000000
O    -3.402000000    -1.746000000    -3.123000000
H    -1.869000000    -1.950000000    -1.592000000
C    -4.251000000    -2.500000000     0.021000000
C    -5.209000000    -1.707000000    -0.956000000
H    -6.132000000    -1.497000000    -0.411000000
H    -5.486000000    -2.493000000    -1.661000000
C    -4.525000000    -0.534000000    -1.525000000
C    -4.622000000     0.647000000    -0.866000000
H    -5.193000000     0.615000000     0.058000000
C    -3.635000000    -0.575000000    -2.577000000
C    -3.082000000     0.568000000    -3.106000000
H    -2.244000000     0.515000000    -3.796000000
C    -3.381000000     1.787000000    -2.538000000
O    -2.756000000     2.931000000    -2.926000000
C    -1.566000000     3.337000000    -2.235000000
C    -0.459000000     3.758000000    -3.221000000
C    -0.383000000     3.044000000    -4.447000000
H    -1.116000000     2.273000000    -4.670000000
C     0.612000000     4.603000000    -2.830000000
H     0.556000000     5.157000000    -1.897000000
O    -1.935000000     4.479000000    -1.439000000
H    -1.192000000     2.539000000    -1.577000000
C    -4.142000000     1.858000000    -1.412000000
C    -4.426000000     3.062000000    -0.670000000
H    -5.328000000     2.896000000    -0.077000000
H    -4.728000000     3.915000000    -1.281000000
C    -3.337000000     3.497000000     0.318000000
C    -2.167000000     4.110000000    -0.119000000
C    -1.066000000     4.218000000     0.725000000
H    -0.116000000     4.524000000     0.295000000
C    -1.169000000     3.772000000     2.084000000
O    -0.147000000     3.902000000     2.970000000
C     0.655000000     2.780000000     3.160000000
H     0.457000000     2.002000000     2.409000000
C     2.106000000     3.060000000     3.074000000
C     3.037000000     2.128000000     3.584000000
H     2.781000000     1.266000000     4.195000000
C     2.592000000     4.125000000     2.300000000
H     1.829000000     4.703000000     1.784000000
C     3.963000000     4.243000000     2.032000000
O     4.426000000     5.293000000     1.210000000
C     4.875000000     3.392000000     2.674000000
H     5.951000000     3.540000000     2.701000000
C     4.429000000     2.331000000     3.441000000
O     5.342000000     1.539000000     4.120000000
C     4.960000000     0.431000000     4.835000000
C     4.817000000    -0.773000000     4.118000000
H     5.142000000    -0.830000000     3.082000000
C     4.715000000     0.511000000     6.181000000
H     4.831000000     1.480000000     6.659000000
C     4.134000000    -0.549000000     6.821000000
H     3.929000000    -0.494000000     7.887000000
C     4.110000000    -1.814000000     6.179000000
H     3.646000000    -2.699000000     6.608000000
C     4.515000000    -1.907000000     4.783000000
O     4.429000000    -3.115000000     4.116000000
C     3.360000000    -3.719000000     3.488000000
C     3.607000000    -4.850000000     2.735000000
H     4.638000000    -5.170000000     2.609000000
C     2.544000000    -5.460000000     2.081000000
O     2.712000000    -6.586000000     1.365000000
C     2.004000000    -6.884000000     0.216000000
C     1.829000000    -5.946000000    -0.815000000
H     2.144000000    -4.910000000    -0.718000000
C     1.501000000    -8.149000000     0.044000000
H     1.711000000    -8.907000000     0.794000000
C     0.839000000    -8.503000000    -1.183000000
H     0.453000000    -9.512000000    -1.300000000
C     0.730000000    -7.554000000    -2.165000000
H     0.268000000    -7.922000000    -3.077000000
C     1.295000000    -6.263000000    -2.065000000
O     1.460000000    -5.482000000    -3.172000000
C     0.696000000    -4.438000000    -3.569000000
C     1.037000000    -3.748000000    -4.782000000
H     1.902000000    -4.090000000    -5.344000000
C     0.326000000    -2.591000000    -5.178000000
O     0.748000000    -1.951000000    -6.310000000
C     0.068000000    -0.811000000    -6.681000000
C     0.645000000     0.401000000    -6.315000000
H     1.439000000     0.541000000    -5.585000000
C    -1.042000000    -0.872000000    -7.529000000
H    -1.580000000    -1.742000000    -7.897000000
C    -1.609000000     0.319000000    -7.972000000
H    -2.476000000     0.236000000    -8.622000000
C    -1.014000000     1.506000000    -7.649000000
H    -1.585000000     2.392000000    -7.915000000
C     0.145000000     1.522000000    -6.893000000
O     0.796000000     2.684000000    -6.615000000
C     0.646000000     3.371000000    -5.354000000
C     1.726000000     4.159000000    -4.935000000
H     2.540000000     4.304000000    -5.641000000
C     1.698000000     4.752000000    -3.698000000
O     2.699000000     5.586000000    -3.285000000
C     2.854000000     6.009000000    -2.017000000
C     2.152000000     7.119000000    -1.649000000
H     1.468000000     7.537000000    -2.382000000
C     2.265000000     7.694000000    -0.438000000
H     1.620000000     8.532000000    -0.189000000
C     3.104000000     7.073000000     0.510000000
H     3.174000000     7.626000000     1.443000000
C     3.719000000     5.902000000     0.195000000
C     3.579000000     5.337000000    -1.069000000
H     4.111000000     4.412000000    -1.276000000
C     1.058000000    -0.803000000    -1.741000000
H     1.128000000    -1.760000000    -2.251000000
C     0.192000000    -0.669000000    -0.599000000
H    -0.389000000    -1.460000000    -0.132000000
C     0.218000000     0.552000000     0.083000000
H    -0.455000000     0.806000000     0.862000000
C     1.064000000     1.521000000    -0.407000000
H     1.041000000     2.477000000     0.110000000
C     1.918000000     1.383000000    -1.478000000
H     2.592000000     2.179000000    -1.783000000
C     1.921000000     0.212000000    -2.157000000
C     2.935000000    -0.016000000    -3.263000000
O     3.526000000     0.919000000    -3.745000000
O     3.359000000    -1.163000000    -3.421000000
O     7.286000000    -0.961000000    -0.525000000
H     7.038000000    -1.163000000    -1.427000000
H     6.825000000    -0.146000000    -0.326000000
O     6.039000000    -0.953000000    -2.790000000
H     6.453000000    -0.348000000    -3.405000000
H     5.164000000    -1.100000000    -3.150000000
O     3.051000000     1.065000000    -8.357000000
H     3.714000000     1.224000000    -7.685000000
H     2.217000000     1.154000000    -7.896000000
O     4.206000000    -2.070000000    -6.055000000
H     3.748000000    -1.328000000    -6.450000000
H     4.164000000    -1.903000000    -5.113000000
O     4.724000000     1.060000000    -6.128000000
H     4.299000000     1.105000000    -5.271000000
H     4.745000000     1.967000000    -6.434000000
O     3.676000000    -2.837000000    -1.285000000
H     3.938000000    -2.022000000    -0.855000000
H     3.393000000    -2.566000000    -2.158000000
O     3.930000000    -0.658000000     0.560000000
H     3.041000000    -0.317000000     0.657000000
H     4.479000000     0.122000000     0.486000000
O     4.413000000    -4.061000000    -7.612000000
H     4.210000000    -3.476000000    -6.883000000
H     5.301000000    -4.371000000    -7.430000000
O     7.367000000     0.959000000    -4.062000000
H     7.348000000     1.545000000    -4.819000000
H     6.864000000     1.420000000    -3.390000000
O     6.550000000     4.843000000    -3.636000000
H     6.083000000     4.105000000    -3.244000000
H     5.864000000     5.475000000    -3.850000000
O     4.520000000    -5.204000000    -2.466000000
H     4.204000000    -4.435000000    -1.993000000
H     3.759000000    -5.783000000    -2.516000000
O     7.814000000     2.645000000    -6.388000000
H     8.463000000     2.901000000    -7.043000000
H     6.990000000     2.597000000    -6.872000000
O     6.812000000    -3.296000000    -4.071000000
H     6.072000000    -3.862000000    -3.851000000
H     6.474000000    -2.407000000    -3.959000000
O     5.301000000     1.839000000     0.294000000
H     6.172000000     2.231000000     0.368000000
H     4.720000000     2.466000000     0.725000000
O     6.087000000    -2.853000000     1.339000000
H     6.671000000    -2.210000000     0.938000000
H     5.210000000    -2.489000000     1.217000000
O     9.646000000    -0.408000000    -4.570000000
H     8.775000000    -0.107000000    -4.312000000
H     9.481000000    -1.091000000    -5.219000000
O     5.094000000     3.556000000    -7.272000000
H     4.990000000     4.439000000    -6.919000000
H     4.986000000     3.661000000    -8.217000000
O     5.537000000     2.423000000    -2.387000000
H     4.827000000     1.891000000    -2.746000000
H     5.496000000     2.272000000    -1.443000000
O     6.835000000    -1.206000000    -6.686000000
H     5.957000000    -1.574000000    -6.585000000
H     6.698000000    -0.259000000    -6.692000000
