215
-1451.80745
C     2.552000000    -4.371000000     2.316000000
H     1.677000000    -4.978000000     2.099000000
C     2.420000000    -3.147000000     2.867000000
C     3.475000000    -2.244000000     2.993000000
H     3.224000000    -1.288000000     3.445000000
C     0.991000000    -2.656000000     3.256000000
O     0.105000000    -3.747000000     3.433000000
H     0.626000000    -1.983000000     2.467000000
O     0.989000000    -1.829000000     4.455000000
C     0.107000000    -0.688000000     4.426000000
C     0.630000000     0.569000000     4.152000000
H     1.664000000     0.708000000     3.845000000
C    -0.127000000     1.744000000     4.074000000
O     0.527000000     2.774000000     3.585000000
C    -1.495000000     1.737000000     4.388000000
C    -2.378000000     2.983000000     4.240000000
H    -3.225000000     2.878000000     4.921000000
C    -2.879000000     3.284000000     2.815000000
C    -3.971000000     2.623000000     2.222000000
H    -4.471000000     1.831000000     2.775000000
H    -1.933000000     3.905000000     4.618000000
C    -2.006000000     0.445000000     4.673000000
H    -3.072000000     0.335000000     4.855000000
C    -1.281000000    -0.752000000     4.666000000
C    -1.965000000    -2.085000000     4.717000000
H    -2.967000000    -1.922000000     5.120000000
H    -1.460000000    -2.806000000     5.362000000
C    -2.173000000    -2.719000000     3.397000000
C    -3.376000000    -2.609000000     2.746000000
H    -4.215000000    -2.032000000     3.127000000
C    -1.184000000    -3.581000000     2.874000000
C    -1.438000000    -4.295000000     1.736000000
H    -0.720000000    -5.047000000     1.416000000
C    -2.549000000    -4.017000000     0.974000000
O    -2.545000000    -4.399000000    -0.328000000
C    -2.168000000    -3.402000000    -1.255000000
C    -1.161000000    -3.958000000    -2.258000000
C    -0.929000000    -3.298000000    -3.428000000
H    -1.581000000    -2.457000000    -3.651000000
C    -0.419000000    -5.159000000    -1.946000000
H    -0.540000000    -5.711000000    -1.018000000
O    -3.304000000    -2.774000000    -1.942000000
H    -1.599000000    -2.605000000    -0.753000000
C    -3.512000000    -3.219000000     1.489000000
C    -4.816000000    -2.882000000     0.765000000
H    -5.645000000    -2.689000000     1.449000000
H    -5.099000000    -3.727000000     0.135000000
C    -4.525000000    -1.690000000    -0.080000000
C    -4.872000000    -0.424000000     0.370000000
H    -5.240000000    -0.336000000     1.389000000
C    -4.011000000    -1.724000000    -1.374000000
C    -3.907000000    -0.582000000    -2.122000000
H    -3.490000000    -0.717000000    -3.116000000
C    -4.353000000     0.607000000    -1.680000000
O    -4.052000000     1.694000000    -2.406000000
C    -2.989000000     2.544000000    -1.878000000
C    -2.048000000     3.066000000    -2.963000000
C    -1.258000000     2.142000000    -3.687000000
H    -1.695000000     1.147000000    -3.709000000
C    -1.653000000     4.447000000    -3.069000000
H    -2.213000000     5.103000000    -2.407000000
O    -3.599000000     3.624000000    -1.277000000
H    -2.337000000     1.968000000    -1.205000000
C    -4.799000000     0.748000000    -0.396000000
C    -5.266000000     2.035000000     0.206000000
H    -6.083000000     1.778000000     0.884000000
H    -5.794000000     2.599000000    -0.566000000
C    -4.197000000     2.752000000     0.853000000
C    -3.406000000     3.594000000     0.059000000
C    -2.302000000     4.260000000     0.606000000
H    -1.623000000     4.804000000    -0.045000000
C    -2.007000000     4.068000000     1.949000000
O    -0.711000000     4.344000000     2.275000000
C     0.344000000     3.347000000     2.248000000
H    -0.095000000     2.563000000     1.613000000
C     1.716000000     3.832000000     1.714000000
C     2.688000000     2.885000000     1.615000000
H     2.550000000     1.869000000     1.977000000
C     1.832000000     5.048000000     1.102000000
H     1.048000000     5.785000000     1.253000000
C     2.975000000     5.341000000     0.295000000
O     3.075000000     6.569000000    -0.333000000
C     4.004000000     4.391000000     0.188000000
H     4.762000000     4.518000000    -0.580000000
C     3.825000000     3.113000000     0.825000000
O     4.739000000     2.077000000     0.567000000
C     5.407000000     1.444000000     1.529000000
C     5.414000000     0.009000000     1.584000000
H     4.981000000    -0.575000000     0.776000000
C     5.996000000     2.163000000     2.557000000
H     5.875000000     3.239000000     2.658000000
C     6.616000000     1.506000000     3.683000000
H     6.972000000     2.091000000     4.527000000
C     6.512000000     0.111000000     3.787000000
H     6.879000000    -0.381000000     4.684000000
C     6.045000000    -0.611000000     2.682000000
O     5.915000000    -1.996000000     2.808000000
C     4.741000000    -2.700000000     2.598000000
C     4.903000000    -4.004000000     2.082000000
H     5.863000000    -4.224000000     1.622000000
C     3.779000000    -4.803000000     1.871000000
O     3.952000000    -5.976000000     1.149000000
C     2.903000000    -6.701000000     0.549000000
C     2.604000000    -6.279000000    -0.745000000
H     3.084000000    -5.448000000    -1.254000000
C     2.405000000    -7.838000000     1.109000000
H     2.757000000    -8.170000000     2.083000000
C     1.427000000    -8.533000000     0.386000000
H     1.048000000    -9.465000000     0.797000000
C     1.105000000    -8.199000000    -0.910000000
H     0.395000000    -8.845000000    -1.420000000
C     1.709000000    -7.106000000    -1.490000000
O     1.195000000    -6.711000000    -2.689000000
C     0.527000000    -5.480000000    -2.816000000
C     0.798000000    -4.788000000    -3.997000000
H     1.646000000    -5.021000000    -4.637000000
C     0.018000000    -3.733000000    -4.288000000
O     0.286000000    -3.104000000    -5.507000000
C    -0.229000000    -1.841000000    -5.808000000
C     0.385000000    -0.716000000    -5.242000000
H     1.256000000    -0.740000000    -4.591000000
C    -1.422000000    -1.763000000    -6.525000000
H    -1.850000000    -2.678000000    -6.926000000
C    -1.952000000    -0.514000000    -6.817000000
H    -2.881000000    -0.347000000    -7.355000000
C    -1.302000000     0.637000000    -6.362000000
H    -1.627000000     1.597000000    -6.754000000
C    -0.137000000     0.496000000    -5.585000000
O     0.521000000     1.542000000    -5.078000000
C    -0.220000000     2.525000000    -4.519000000
C     0.185000000     3.818000000    -4.604000000
H     1.077000000     4.091000000    -5.162000000
C    -0.501000000     4.784000000    -3.877000000
O    -0.065000000     6.131000000    -3.993000000
C     0.532000000     6.833000000    -3.000000000
C     0.450000000     8.262000000    -3.122000000
H    -0.213000000     8.722000000    -3.851000000
C     1.251000000     9.001000000    -2.301000000
H     1.246000000    10.087000000    -2.274000000
C     2.126000000     8.468000000    -1.355000000
H     2.610000000     9.181000000    -0.691000000
C     2.230000000     7.117000000    -1.305000000
C     1.455000000     6.298000000    -2.113000000
H     1.552000000     5.224000000    -1.976000000
C     2.463000000    -1.274000000    -0.793000000
H     2.900000000    -2.267000000    -0.850000000
C     1.216000000    -1.110000000    -0.142000000
H     0.661000000    -1.921000000     0.322000000
C     0.646000000     0.161000000     0.030000000
H    -0.282000000     0.271000000     0.612000000
C     1.179000000     1.271000000    -0.625000000
H     0.641000000     2.195000000    -0.424000000
C     2.424000000     1.153000000    -1.307000000
H     2.942000000     2.058000000    -1.614000000
C     3.092000000    -0.094000000    -1.346000000
C     4.421000000    -0.187000000    -2.099000000
O     4.893000000     0.718000000    -2.784000000
O     5.048000000    -1.251000000    -2.012000000
O     9.032000000    -1.213000000     1.595000000
H     8.271000000    -1.144000000     2.172000000
H     9.574000000    -1.893000000     1.995000000
O     9.534000000    -1.586000000    -4.289000000
H     8.967000000    -1.971000000    -3.620000000
H     9.189000000    -1.922000000    -5.117000000
O     7.380000000     1.529000000    -3.312000000
H     7.429000000     2.240000000    -2.672000000
H     6.590000000     1.046000000    -3.072000000
O     9.119000000    -3.747000000     0.497000000
H     9.033000000    -2.794000000     0.515000000
H     9.401000000    -3.945000000    -0.396000000
O     7.042000000     0.959000000    -6.116000000
H     7.116000000     1.035000000    -5.165000000
H     6.129000000     0.717000000    -6.267000000
O     4.731000000    -1.979000000    -4.684000000
H     4.934000000    -1.645000000    -3.810000000
H     4.642000000    -1.195000000    -5.226000000
O     3.462000000     1.840000000    -4.832000000
H     3.865000000     1.400000000    -4.084000000
H     2.563000000     2.014000000    -4.551000000
O     5.590000000    -6.446000000    -2.857000000
H     5.687000000    -5.671000000    -2.304000000
H     5.480000000    -7.169000000    -2.239000000
O     7.819000000    -1.579000000    -2.144000000
H     6.885000000    -1.370000000    -2.174000000
H     8.224000000    -0.810000000    -1.742000000
O     2.997000000    -2.282000000    -7.068000000
H     3.519000000    -2.493000000    -6.294000000
H     3.176000000    -2.996000000    -7.680000000
O    10.223000000     1.070000000    -3.708000000
H    10.021000000     0.243000000    -4.147000000
H     9.430000000     1.596000000    -3.812000000
O     6.468000000    -3.504000000    -6.303000000
H     7.317000000    -3.079000000    -6.429000000
H     6.060000000    -3.016000000    -5.588000000
O     9.754000000     0.459000000    -0.340000000
H     9.713000000     0.109000000     0.550000000
H     9.319000000     1.309000000    -0.283000000
O     6.622000000     3.191000000    -1.156000000
H     6.055000000     2.495000000    -0.825000000
H     6.737000000     3.781000000    -0.411000000
O     8.771000000     2.805000000     0.763000000
H     9.149000000     3.244000000     1.524000000
H     8.007000000     3.336000000     0.535000000
O     4.446000000     0.160000000    -6.749000000
H     3.963000000     0.833000000    -6.269000000
H     3.774000000    -0.455000000    -7.041000000
O     4.855000000     3.634000000    -6.401000000
H     5.489000000     4.280000000    -6.089000000
H     4.361000000     3.387000000    -5.619000000
O     6.009000000    -4.019000000    -1.412000000
H     5.340000000    -3.442000000    -1.782000000
H     6.811000000    -3.497000000    -1.428000000
O     4.405000000     3.788000000    -2.937000000
H     4.563000000     2.868000000    -3.147000000
H     5.268000000     4.133000000    -2.709000000
