215
-1459.08914
C     1.813000000    -4.622000000     2.006000000
H     0.903000000    -5.179000000     1.800000000
C     1.755000000    -3.379000000     2.682000000
C     2.959000000    -2.594000000     2.844000000
H     2.863000000    -1.564000000     3.178000000
C     0.430000000    -2.781000000     3.018000000
O    -0.593000000    -3.762000000     3.292000000
H     0.008000000    -2.169000000     2.207000000
O     0.449000000    -1.831000000     4.101000000
C    -0.393000000    -0.769000000     4.210000000
C     0.360000000     0.391000000     4.164000000
H     1.444000000     0.421000000     4.097000000
C    -0.294000000     1.583000000     4.168000000
O     0.464000000     2.748000000     3.968000000
C    -1.672000000     1.603000000     4.351000000
C    -2.464000000     2.887000000     4.210000000
H    -3.436000000     2.664000000     4.656000000
C    -2.706000000     3.190000000     2.755000000
C    -3.797000000     2.748000000     2.016000000
H    -4.474000000     2.019000000     2.454000000
H    -2.155000000     3.735000000     4.824000000
C    -2.418000000     0.429000000     4.397000000
H    -3.497000000     0.408000000     4.527000000
C    -1.783000000    -0.804000000     4.341000000
C    -2.666000000    -2.056000000     4.375000000
H    -3.661000000    -1.722000000     4.677000000
H    -2.284000000    -2.726000000     5.147000000
C    -2.739000000    -2.682000000     3.062000000
C    -3.786000000    -2.385000000     2.221000000
H    -4.527000000    -1.660000000     2.546000000
C    -1.771000000    -3.580000000     2.546000000
C    -1.868000000    -4.143000000     1.273000000
H    -1.093000000    -4.829000000     0.940000000
C    -3.021000000    -3.889000000     0.493000000
O    -3.084000000    -4.315000000    -0.826000000
C    -2.466000000    -3.328000000    -1.737000000
C    -1.376000000    -3.972000000    -2.676000000
C    -0.988000000    -3.237000000    -3.786000000
H    -1.480000000    -2.312000000    -4.073000000
C    -0.751000000    -5.223000000    -2.417000000
H    -0.974000000    -5.795000000    -1.520000000
O    -3.433000000    -2.518000000    -2.440000000
H    -1.917000000    -2.620000000    -1.098000000
C    -3.957000000    -2.989000000     0.983000000
C    -5.099000000    -2.615000000     0.013000000
H    -6.005000000    -2.436000000     0.595000000
H    -5.251000000    -3.396000000    -0.735000000
C    -4.805000000    -1.319000000    -0.818000000
C    -5.205000000    -0.096000000    -0.234000000
H    -5.688000000    -0.008000000     0.736000000
C    -4.019000000    -1.354000000    -1.920000000
C    -3.522000000    -0.205000000    -2.520000000
H    -2.829000000    -0.284000000    -3.353000000
C    -3.894000000     1.055000000    -1.958000000
O    -3.359000000     2.225000000    -2.588000000
C    -2.441000000     3.008000000    -1.901000000
C    -1.290000000     3.320000000    -2.854000000
C    -0.565000000     2.252000000    -3.487000000
H    -0.924000000     1.230000000    -3.403000000
C    -0.797000000     4.675000000    -2.956000000
H    -1.238000000     5.507000000    -2.413000000
O    -3.100000000     4.139000000    -1.241000000
H    -1.951000000     2.466000000    -1.079000000
C    -4.691000000     1.080000000    -0.801000000
C    -5.087000000     2.395000000    -0.090000000
H    -5.921000000     2.102000000     0.551000000
H    -5.497000000     3.059000000    -0.854000000
C    -3.975000000     3.129000000     0.699000000
C    -3.107000000     4.006000000     0.079000000
C    -2.013000000     4.524000000     0.784000000
H    -1.346000000     5.266000000     0.353000000
C    -1.811000000     3.985000000     2.051000000
O    -0.618000000     4.359000000     2.641000000
C     0.365000000     3.316000000     2.596000000
H     0.080000000     2.533000000     1.878000000
C     1.702000000     3.840000000     2.124000000
C     2.777000000     2.934000000     2.117000000
H     2.747000000     1.985000000     2.645000000
C     1.987000000     5.058000000     1.500000000
H     1.202000000     5.800000000     1.378000000
C     3.285000000     5.450000000     1.028000000
O     3.444000000     6.710000000     0.474000000
C     4.339000000     4.549000000     1.123000000
H     5.299000000     4.911000000     0.762000000
C     4.084000000     3.251000000     1.636000000
O     5.187000000     2.391000000     1.745000000
C     5.337000000     1.248000000     2.537000000
C     5.290000000    -0.045000000     2.013000000
H     5.102000000    -0.246000000     0.962000000
C     5.686000000     1.509000000     3.805000000
H     5.872000000     2.487000000     4.241000000
C     5.920000000     0.430000000     4.675000000
H     6.226000000     0.660000000     5.693000000
C     5.689000000    -0.865000000     4.241000000
H     5.702000000    -1.745000000     4.880000000
C     5.519000000    -1.121000000     2.942000000
O     5.394000000    -2.414000000     2.484000000
C     4.208000000    -3.152000000     2.473000000
C     4.224000000    -4.418000000     1.872000000
H     5.153000000    -4.926000000     1.624000000
C     3.060000000    -5.101000000     1.593000000
O     3.112000000    -6.313000000     1.053000000
C     2.095000000    -6.938000000     0.424000000
C     1.887000000    -6.583000000    -0.941000000
H     2.361000000    -5.727000000    -1.414000000
C     1.506000000    -8.068000000     1.011000000
H     1.673000000    -8.285000000     2.063000000
C     0.780000000    -8.946000000     0.207000000
H     0.366000000    -9.854000000     0.638000000
C     0.469000000    -8.554000000    -1.105000000
H    -0.067000000    -9.188000000    -1.807000000
C     1.047000000    -7.378000000    -1.637000000
O     0.661000000    -6.964000000    -2.916000000
C     0.168000000    -5.762000000    -3.197000000
C     0.656000000    -5.047000000    -4.293000000
H     1.457000000    -5.444000000    -4.912000000
C     0.064000000    -3.807000000    -4.595000000
O     0.573000000    -3.146000000    -5.719000000
C     0.556000000    -1.769000000    -5.947000000
C     1.056000000    -0.795000000    -5.073000000
H     1.480000000    -1.103000000    -4.120000000
C    -0.136000000    -1.375000000    -7.142000000
H    -0.614000000    -2.076000000    -7.822000000
C    -0.338000000    -0.024000000    -7.355000000
H    -1.034000000     0.259000000    -8.140000000
C     0.175000000     0.950000000    -6.476000000
H    -0.063000000     1.964000000    -6.788000000
C     0.928000000     0.564000000    -5.376000000
O     1.451000000     1.531000000    -4.563000000
C     0.628000000     2.542000000    -4.183000000
C     1.133000000     3.812000000    -4.219000000
H     2.118000000     4.031000000    -4.622000000
C     0.440000000     4.880000000    -3.596000000
O     0.857000000     6.135000000    -3.716000000
C     1.370000000     6.884000000    -2.642000000
C     1.137000000     8.284000000    -2.690000000
H     0.540000000     8.740000000    -3.475000000
C     1.535000000     9.119000000    -1.644000000
H     1.337000000    10.185000000    -1.569000000
C     2.224000000     8.569000000    -0.568000000
H     2.519000000     9.248000000     0.228000000
C     2.570000000     7.223000000    -0.499000000
C     2.082000000     6.401000000    -1.549000000
H     2.416000000     5.367000000    -1.555000000
C     2.400000000    -1.780000000    -0.892000000
H     3.005000000    -2.662000000    -1.086000000
C     1.031000000    -1.839000000    -0.469000000
H     0.482000000    -2.759000000    -0.288000000
C     0.331000000    -0.675000000    -0.246000000
H    -0.704000000    -0.757000000    -0.070000000
C     0.965000000     0.557000000    -0.335000000
H     0.390000000     1.433000000    -0.041000000
C     2.256000000     0.619000000    -0.829000000
H     2.812000000     1.528000000    -1.045000000
C     2.940000000    -0.560000000    -1.126000000
C     4.405000000    -0.509000000    -1.742000000
O     4.975000000     0.575000000    -1.898000000
O     5.045000000    -1.563000000    -2.086000000
O     9.759000000     0.334000000     0.269000000
H     8.980000000     0.309000000    -0.286000000
H     9.418000000     0.446000000     1.156000000
O     5.810000000     2.971000000    -1.221000000
H     5.721000000     3.002000000    -0.268000000
H     5.493000000     2.100000000    -1.462000000
O     7.237000000    -3.234000000     0.278000000
H     6.931000000    -3.089000000     1.173000000
H     7.063000000    -4.160000000     0.112000000
O     6.233000000     2.763000000    -5.619000000
H     6.268000000     1.927000000    -5.154000000
H     5.648000000     3.306000000    -5.091000000
O     6.136000000    -5.647000000    -4.967000000
H     6.719000000    -6.239000000    -5.443000000
H     6.622000000    -4.824000000    -4.914000000
O     4.832000000    -2.144000000    -4.911000000
H     5.672000000    -2.598000000    -4.841000000
H     4.772000000    -1.627000000    -4.107000000
O     6.580000000     0.253000000    -3.997000000
H     5.903000000    -0.279000000    -4.414000000
H     6.167000000     0.585000000    -3.201000000
O     4.640000000    -6.515000000    -2.936000000
H     5.120000000    -6.182000000    -3.694000000
H     4.712000000    -5.821000000    -2.281000000
O     9.145000000    -1.438000000    -3.297000000
H     8.986000000    -1.443000000    -2.353000000
H     8.354000000    -1.048000000    -3.671000000
O     8.804000000    -3.856000000    -1.958000000
H     9.191000000    -4.268000000    -1.185000000
H     8.085000000    -3.327000000    -1.612000000
O     7.048000000    -0.231000000    -7.060000000
H     7.873000000    -0.712000000    -6.999000000
H     7.257000000     0.646000000    -6.740000000
O     7.193000000    -3.132000000    -4.463000000
H     7.911000000    -2.973000000    -3.849000000
H     7.560000000    -2.917000000    -5.321000000
O     7.569000000    -0.565000000    -0.897000000
H     6.715000000    -0.525000000    -1.330000000
H     7.516000000    -1.336000000    -0.334000000
O     8.131000000     2.727000000    -2.464000000
H     7.628000000     2.002000000    -2.834000000
H     7.501000000     3.206000000    -1.926000000
O     8.581000000     0.247000000     2.791000000
H     7.730000000     0.283000000     3.229000000
H     8.805000000    -0.683000000     2.780000000
O     4.454000000    -1.289000000    -7.684000000
H     4.208000000    -1.904000000    -6.993000000
H     5.376000000    -1.094000000    -7.515000000
O     3.693000000    -4.760000000    -5.537000000
H     3.922000000    -3.842000000    -5.390000000
H     4.339000000    -5.252000000    -5.031000000
O     5.424000000    -4.111000000    -1.921000000
H     5.056000000    -3.233000000    -2.021000000
H     6.217000000    -4.101000000    -2.456000000
O     4.629000000     4.170000000    -3.915000000
H     4.624000000     3.861000000    -3.009000000
H     5.048000000     5.030000000    -3.873000000
