215
-1437.24150
C     1.287000000    -4.541000000     3.130000000
H     0.469000000    -4.956000000     2.546000000
C     1.064000000    -3.413000000     3.913000000
C     2.161000000    -2.837000000     4.597000000
H     2.049000000    -1.972000000     5.247000000
C    -0.326000000    -2.738000000     3.880000000
O    -1.431000000    -3.603000000     3.635000000
H    -0.261000000    -1.910000000     3.158000000
O    -0.563000000    -1.933000000     5.044000000
C    -1.053000000    -0.659000000     4.884000000
C    -0.189000000     0.406000000     4.785000000
H     0.851000000     0.132000000     4.941000000
C    -0.528000000     1.603000000     4.236000000
O     0.474000000     2.455000000     3.844000000
C    -1.916000000     1.867000000     4.255000000
C    -2.416000000     3.195000000     3.796000000
H    -3.421000000     3.471000000     4.124000000
C    -2.459000000     3.399000000     2.296000000
C    -3.592000000     3.167000000     1.519000000
H    -4.466000000     2.750000000     2.014000000
H    -1.838000000     3.933000000     4.356000000
C    -2.871000000     0.871000000     4.430000000
H    -3.927000000     1.078000000     4.279000000
C    -2.423000000    -0.414000000     4.560000000
C    -3.446000000    -1.619000000     4.412000000
H    -4.487000000    -1.347000000     4.603000000
H    -3.224000000    -2.396000000     5.147000000
C    -3.423000000    -2.181000000     3.006000000
C    -4.276000000    -1.749000000     2.012000000
H    -5.048000000    -1.031000000     2.278000000
C    -2.399000000    -3.158000000     2.730000000
C    -2.250000000    -3.677000000     1.425000000
H    -1.497000000    -4.394000000     1.107000000
C    -3.088000000    -3.176000000     0.446000000
O    -2.846000000    -3.574000000    -0.871000000
C    -2.350000000    -2.522000000    -1.737000000
C    -1.088000000    -3.008000000    -2.392000000
C    -0.478000000    -2.151000000    -3.331000000
H    -0.902000000    -1.180000000    -3.573000000
C    -0.482000000    -4.229000000    -2.019000000
H    -0.815000000    -4.869000000    -1.206000000
O    -3.324000000    -1.971000000    -2.658000000
H    -2.084000000    -1.701000000    -1.055000000
C    -4.131000000    -2.291000000     0.738000000
C    -5.158000000    -1.835000000    -0.366000000
H    -6.035000000    -1.551000000     0.219000000
H    -5.391000000    -2.594000000    -1.115000000
C    -4.731000000    -0.616000000    -1.101000000
C    -5.020000000     0.633000000    -0.610000000
H    -5.440000000     0.689000000     0.390000000
C    -4.003000000    -0.793000000    -2.289000000
C    -3.607000000     0.352000000    -3.018000000
H    -2.942000000     0.328000000    -3.878000000
C    -4.016000000     1.594000000    -2.543000000
O    -3.390000000     2.670000000    -3.109000000
C    -2.119000000     3.120000000    -2.658000000
C    -1.129000000     3.283000000    -3.786000000
C    -1.419000000     2.674000000    -5.047000000
H    -2.272000000     2.016000000    -5.199000000
C     0.088000000     3.922000000    -3.526000000
H     0.271000000     4.303000000    -2.524000000
O    -2.348000000     4.188000000    -1.799000000
H    -1.723000000     2.344000000    -1.987000000
C    -4.655000000     1.781000000    -1.315000000
C    -4.794000000     3.102000000    -0.689000000
H    -5.710000000     3.088000000    -0.094000000
H    -4.938000000     3.826000000    -1.495000000
C    -3.565000000     3.438000000     0.133000000
C    -2.407000000     3.885000000    -0.482000000
C    -1.251000000     4.250000000     0.263000000
H    -0.352000000     4.644000000    -0.203000000
C    -1.350000000     3.962000000     1.616000000
O    -0.178000000     4.037000000     2.332000000
C     0.524000000     2.777000000     2.493000000
H     0.049000000     1.956000000     1.937000000
C     1.995000000     2.820000000     1.942000000
C     2.892000000     1.732000000     2.217000000
H     2.602000000     0.942000000     2.905000000
C     2.460000000     3.953000000     1.150000000
H     1.722000000     4.720000000     0.931000000
C     3.768000000     3.944000000     0.666000000
O     4.219000000     5.092000000    -0.029000000
C     4.619000000     2.906000000     1.014000000
H     5.632000000     2.895000000     0.620000000
C     4.244000000     1.803000000     1.746000000
O     5.177000000     0.850000000     2.001000000
C     5.353000000     0.309000000     3.290000000
C     4.928000000    -1.001000000     3.527000000
H     4.469000000    -1.543000000     2.705000000
C     5.862000000     1.035000000     4.420000000
H     6.112000000     2.064000000     4.172000000
C     5.845000000     0.459000000     5.689000000
H     6.184000000     0.965000000     6.589000000
C     5.335000000    -0.828000000     5.895000000
H     5.312000000    -1.360000000     6.842000000
C     4.899000000    -1.593000000     4.808000000
O     4.548000000    -2.845000000     4.980000000
C     3.399000000    -3.449000000     4.519000000
C     3.630000000    -4.564000000     3.739000000
H     4.580000000    -5.089000000     3.678000000
C     2.587000000    -5.094000000     2.962000000
O     2.816000000    -6.124000000     2.128000000
C     1.976000000    -6.561000000     1.212000000
C     1.993000000    -5.892000000     0.004000000
H     2.768000000    -5.195000000    -0.306000000
C     1.162000000    -7.659000000     1.494000000
H     1.082000000    -8.051000000     2.504000000
C     0.416000000    -8.125000000     0.403000000
H    -0.167000000    -9.019000000     0.611000000
C     0.396000000    -7.507000000    -0.855000000
H    -0.178000000    -7.908000000    -1.686000000
C     1.224000000    -6.384000000    -1.014000000
O     1.329000000    -5.749000000    -2.272000000
C     0.685000000    -4.579000000    -2.679000000
C     1.260000000    -3.732000000    -3.556000000
H     2.223000000    -4.085000000    -3.917000000
C     0.698000000    -2.533000000    -3.963000000
O     1.270000000    -1.727000000    -4.854000000
C     0.808000000    -1.155000000    -6.016000000
C     0.203000000     0.147000000    -6.039000000
H     0.234000000     0.635000000    -5.068000000
C     0.828000000    -1.824000000    -7.283000000
H     1.108000000    -2.874000000    -7.253000000
C     0.261000000    -1.185000000    -8.405000000
H     0.193000000    -1.716000000    -9.351000000
C    -0.148000000     0.118000000    -8.384000000
H    -0.410000000     0.663000000    -9.286000000
C    -0.235000000     0.812000000    -7.206000000
O    -0.584000000     2.149000000    -7.201000000
C    -0.471000000     2.906000000    -6.013000000
C     0.711000000     3.524000000    -5.782000000
H     1.403000000     3.628000000    -6.614000000
C     0.978000000     4.073000000    -4.490000000
O     2.136000000     4.792000000    -4.341000000
C     2.485000000     5.484000000    -3.216000000
C     1.888000000     6.758000000    -3.120000000
H     1.287000000     7.139000000    -3.942000000
C     2.095000000     7.511000000    -1.941000000
H     1.790000000     8.552000000    -1.866000000
C     2.939000000     6.953000000    -0.926000000
H     3.155000000     7.620000000    -0.096000000
C     3.457000000     5.656000000    -1.042000000
C     3.157000000     4.918000000    -2.172000000
H     3.428000000     3.869000000    -2.260000000
C     1.874000000    -1.706000000    -0.573000000
H     2.570000000    -2.540000000    -0.535000000
C     0.773000000    -1.791000000     0.321000000
H     0.746000000    -2.665000000     0.967000000
C    -0.064000000    -0.722000000     0.402000000
H    -0.932000000    -0.632000000     1.136000000
C     0.068000000     0.301000000    -0.473000000
H    -0.593000000     1.158000000    -0.374000000
C     0.997000000     0.262000000    -1.535000000
H     1.063000000     1.084000000    -2.243000000
C     1.964000000    -0.743000000    -1.528000000
C     3.156000000    -0.641000000    -2.402000000
O     3.291000000     0.284000000    -3.204000000
O     3.970000000    -1.573000000    -2.413000000
O     8.288000000    -1.976000000    -2.167000000
H     8.484000000    -2.814000000    -1.747000000
H     7.682000000    -1.543000000    -1.565000000
O     7.428000000    -3.220000000    -4.640000000
H     7.547000000    -2.945000000    -3.731000000
H     6.809000000    -2.587000000    -5.003000000
O     5.102000000     1.898000000    -2.285000000
H     4.830000000     2.185000000    -1.414000000
H     4.435000000     1.264000000    -2.548000000
O     3.554000000     2.363000000    -8.474000000
H     3.474000000     1.634000000    -9.090000000
H     3.478000000     1.957000000    -7.611000000
O     5.618000000    -1.221000000    -4.819000000
H     5.059000000    -1.306000000    -5.591000000
H     5.007000000    -1.114000000    -4.090000000
O     3.467000000     1.459000000    -5.917000000
H     3.521000000     0.902000000    -5.140000000
H     4.089000000     2.166000000    -5.748000000
O     5.025000000    -6.836000000    -2.618000000
H     5.787000000    -6.696000000    -3.179000000
H     4.822000000    -5.969000000    -2.268000000
O     4.418000000    -4.161000000    -1.900000000
H     5.025000000    -3.844000000    -1.232000000
H     4.063000000    -3.367000000    -2.298000000
O     7.983000000     0.311000000     0.348000000
H     7.757000000     0.981000000    -0.297000000
H     7.292000000    -0.345000000     0.265000000
O     7.684000000     1.107000000    -7.350000000
H     7.606000000     2.059000000    -7.299000000
H     7.708000000     0.820000000    -6.437000000
O     7.808000000     1.253000000    -4.388000000
H     7.194000000     0.519000000    -4.350000000
H     8.095000000     1.371000000    -3.482000000
O     6.337000000    -3.552000000     0.081000000
H     7.065000000    -4.114000000    -0.184000000
H     6.590000000    -3.224000000     0.944000000
O     4.093000000    -1.440000000    -7.297000000
H     3.978000000    -1.567000000    -8.238000000
H     3.300000000    -0.981000000    -7.018000000
O     8.612000000     2.229000000    -2.029000000
H     9.442000000     2.625000000    -1.764000000
H     8.036000000     2.973000000    -2.205000000
O     7.365000000    -5.799000000    -3.822000000
H     7.794000000    -6.264000000    -4.540000000
H     7.534000000    -4.874000000    -3.999000000
O     0.602000000    -6.194000000    -5.962000000
H    -0.299000000    -6.045000000    -5.675000000
H     1.126000000    -6.085000000    -5.168000000
O     3.320000000    -6.546000000    -4.747000000
H     4.128000000    -6.620000000    -5.255000000
H     3.608000000    -6.575000000    -3.834000000
O     5.909000000    -1.142000000    -0.766000000
H     5.278000000    -1.125000000    -1.486000000
H     5.765000000    -1.987000000    -0.341000000
O     5.580000000     3.487000000    -4.731000000
H     4.867000000     4.079000000    -4.491000000
H     5.810000000     3.044000000    -3.915000000
