215
-1438.40888
C     0.670000000    -4.751000000     3.149000000
H    -0.171000000    -5.202000000     2.628000000
C     0.511000000    -3.522000000     3.767000000
C     1.567000000    -2.992000000     4.496000000
H     1.452000000    -2.076000000     5.070000000
C    -0.696000000    -2.638000000     3.534000000
O    -1.847000000    -3.473000000     3.272000000
H    -0.597000000    -1.981000000     2.657000000
O    -0.948000000    -1.807000000     4.637000000
C    -1.442000000    -0.525000000     4.465000000
C    -0.560000000     0.547000000     4.481000000
H     0.467000000     0.270000000     4.704000000
C    -0.922000000     1.830000000     4.155000000
O     0.100000000     2.741000000     4.004000000
C    -2.245000000     2.096000000     3.863000000
C    -2.730000000     3.523000000     3.467000000
H    -3.810000000     3.473000000     3.625000000
C    -2.494000000     3.876000000     2.019000000
C    -3.476000000     3.468000000     1.123000000
H    -4.354000000     2.982000000     1.542000000
H    -2.299000000     4.282000000     4.123000000
C    -3.118000000     1.063000000     3.798000000
H    -4.156000000     1.273000000     3.554000000
C    -2.779000000    -0.201000000     4.107000000
C    -3.796000000    -1.359000000     3.858000000
H    -4.772000000    -0.891000000     3.997000000
H    -3.798000000    -2.109000000     4.652000000
C    -3.686000000    -2.050000000     2.469000000
C    -4.604000000    -1.691000000     1.394000000
H    -5.264000000    -0.842000000     1.554000000
C    -2.775000000    -3.071000000     2.298000000
C    -2.683000000    -3.688000000     1.064000000
H    -1.791000000    -4.282000000     0.879000000
C    -3.528000000    -3.322000000     0.025000000
O    -3.181000000    -3.787000000    -1.197000000
C    -2.412000000    -2.786000000    -1.993000000
C    -1.235000000    -3.332000000    -2.736000000
C    -0.477000000    -2.651000000    -3.722000000
H    -0.811000000    -1.655000000    -4.004000000
C    -0.609000000    -4.499000000    -2.263000000
H    -1.063000000    -5.144000000    -1.514000000
O    -3.228000000    -2.174000000    -2.962000000
H    -2.121000000    -1.962000000    -1.324000000
C    -4.538000000    -2.357000000     0.144000000
C    -5.279000000    -1.865000000    -1.053000000
H    -6.310000000    -1.600000000    -0.808000000
H    -5.329000000    -2.671000000    -1.787000000
C    -4.645000000    -0.714000000    -1.688000000
C    -4.859000000     0.607000000    -1.186000000
H    -5.515000000     0.780000000    -0.336000000
C    -3.622000000    -0.859000000    -2.630000000
C    -3.052000000     0.209000000    -3.339000000
H    -2.270000000     0.002000000    -4.065000000
C    -3.298000000     1.451000000    -2.853000000
O    -2.664000000     2.547000000    -3.449000000
C    -1.588000000     3.093000000    -2.771000000
C    -0.509000000     3.411000000    -3.766000000
C    -0.242000000     2.574000000    -4.875000000
H    -0.997000000     1.835000000    -5.129000000
C     0.451000000     4.325000000    -3.386000000
H     0.375000000     4.979000000    -2.521000000
O    -1.933000000     4.265000000    -2.056000000
H    -1.160000000     2.417000000    -2.017000000
C    -4.221000000     1.692000000    -1.796000000
C    -4.479000000     3.104000000    -1.131000000
H    -5.359000000     3.071000000    -0.486000000
H    -4.738000000     3.739000000    -1.981000000
C    -3.304000000     3.587000000    -0.263000000
C    -2.115000000     4.127000000    -0.702000000
C    -1.119000000     4.541000000     0.191000000
H    -0.227000000     4.876000000    -0.331000000
C    -1.286000000     4.316000000     1.555000000
O    -0.160000000     4.376000000     2.297000000
C     0.574000000     3.157000000     2.721000000
H     0.298000000     2.313000000     2.072000000
C     2.087000000     3.253000000     2.536000000
C     2.851000000     2.259000000     3.188000000
H     2.405000000     1.541000000     3.871000000
C     2.679000000     4.097000000     1.618000000
H     2.068000000     4.851000000     1.128000000
C     3.930000000     3.946000000     1.179000000
O     4.498000000     4.844000000     0.280000000
C     4.664000000     2.880000000     1.680000000
H     5.713000000     2.772000000     1.416000000
C     4.132000000     2.020000000     2.655000000
O     4.771000000     0.787000000     2.862000000
C     4.636000000     0.178000000     4.055000000
C     4.206000000    -1.156000000     4.093000000
H     4.119000000    -1.709000000     3.162000000
C     5.113000000     0.792000000     5.228000000
H     5.501000000     1.803000000     5.140000000
C     5.298000000     0.049000000     6.393000000
H     5.659000000     0.521000000     7.303000000
C     4.871000000    -1.304000000     6.422000000
H     5.001000000    -1.898000000     7.323000000
C     4.237000000    -1.833000000     5.284000000
O     3.893000000    -3.148000000     5.278000000
C     2.825000000    -3.661000000     4.483000000
C     2.912000000    -4.903000000     3.928000000
H     3.859000000    -5.431000000     3.856000000
C     1.849000000    -5.412000000     3.159000000
O     1.999000000    -6.672000000     2.564000000
C     1.292000000    -6.967000000     1.457000000
C     1.451000000    -6.271000000     0.328000000
H     2.095000000    -5.396000000     0.321000000
C     0.564000000    -8.165000000     1.373000000
H     0.389000000    -8.740000000     2.279000000
C     0.071000000    -8.723000000     0.157000000
H    -0.387000000    -9.707000000     0.091000000
C     0.245000000    -7.945000000    -0.982000000
H    -0.080000000    -8.355000000    -1.935000000
C     0.995000000    -6.721000000    -0.932000000
O     1.301000000    -5.930000000    -2.050000000
C     0.651000000    -4.892000000    -2.693000000
C     1.340000000    -4.190000000    -3.659000000
H     2.371000000    -4.487000000    -3.834000000
C     0.752000000    -3.103000000    -4.156000000
O     1.458000000    -2.307000000    -5.086000000
C     0.923000000    -1.382000000    -5.953000000
C     1.223000000    -0.035000000    -5.919000000
H     1.751000000     0.362000000    -5.056000000
C     0.166000000    -1.825000000    -7.018000000
H    -0.011000000    -2.896000000    -6.964000000
C    -0.199000000    -1.036000000    -8.164000000
H    -0.754000000    -1.421000000    -9.015000000
C     0.107000000     0.309000000    -8.047000000
H    -0.242000000     1.019000000    -8.793000000
C     0.837000000     0.802000000    -6.965000000
O     1.074000000     2.135000000    -6.864000000
C     0.864000000     2.816000000    -5.705000000
C     1.551000000     4.007000000    -5.569000000
H     2.271000000     4.359000000    -6.304000000
C     1.470000000     4.658000000    -4.336000000
O     2.406000000     5.750000000    -4.090000000
C     2.963000000     6.075000000    -2.808000000
C     3.152000000     7.492000000    -2.569000000
H     2.825000000     8.217000000    -3.310000000
C     3.641000000     8.014000000    -1.352000000
H     3.766000000     9.082000000    -1.196000000
C     4.013000000     7.058000000    -0.353000000
H     4.475000000     7.491000000     0.531000000
C     3.848000000     5.695000000    -0.594000000
C     3.281000000     5.200000000    -1.780000000
H     3.111000000     4.133000000    -1.908000000
C     2.374000000    -2.289000000    -0.644000000
H     2.903000000    -3.231000000    -0.767000000
C     1.329000000    -2.202000000     0.274000000
H     1.067000000    -3.085000000     0.853000000
C     0.647000000    -0.977000000     0.485000000
H    -0.214000000    -0.850000000     1.143000000
C     1.094000000     0.170000000    -0.159000000
H     0.762000000     1.187000000     0.035000000
C     2.045000000     0.042000000    -1.133000000
H     2.316000000     0.841000000    -1.819000000
C     2.762000000    -1.143000000    -1.335000000
C     3.811000000    -1.304000000    -2.432000000
O     4.491000000    -0.328000000    -2.621000000
O     4.082000000    -2.453000000    -2.804000000
O     6.715000000    -3.070000000    -3.123000000
H     5.828000000    -2.721000000    -3.033000000
H     7.164000000    -2.790000000    -2.326000000
O     7.513000000    -4.314000000    -5.384000000
H     6.886000000    -3.891000000    -5.970000000
H     7.252000000    -4.028000000    -4.508000000
O     5.680000000     0.960000000    -0.606000000
H     5.214000000     0.816000000    -1.430000000
H     5.153000000     0.505000000     0.051000000
O     4.471000000    -5.188000000    -5.064000000
H     4.818000000    -4.927000000    -4.210000000
H     4.635000000    -4.433000000    -5.629000000
O     7.701000000    -2.036000000    -0.961000000
H     7.727000000    -2.215000000    -0.021000000
H     6.864000000    -1.592000000    -1.098000000
O     5.635000000     0.619000000    -4.898000000
H     5.115000000     0.340000000    -4.145000000
H     5.373000000     1.528000000    -5.047000000
O     4.417000000    -5.084000000    -1.778000000
H     4.499000000    -4.240000000    -2.223000000
H     4.998000000    -5.013000000    -1.021000000
O     8.581000000     0.754000000    -0.744000000
H     7.630000000     0.720000000    -0.847000000
H     8.901000000    -0.008000000    -1.227000000
O     6.008000000    -3.160000000    -7.668000000
H     5.242000000    -3.227000000    -8.238000000
H     5.719000000    -2.606000000    -6.943000000
O     5.009000000    -2.357000000    -5.454000000
H     4.622000000    -2.593000000    -4.611000000
H     5.279000000    -1.445000000    -5.346000000
O     6.259000000    -4.637000000     0.438000000
H     6.345000000    -5.245000000     1.172000000
H     7.153000000    -4.520000000     0.118000000
O     5.949000000     3.374000000    -2.476000000
H     6.890000000     3.481000000    -2.615000000
H     5.883000000     2.714000000    -1.786000000
O     3.679000000    -7.590000000    -2.361000000
H     2.910000000    -7.740000000    -2.912000000
H     3.670000000    -6.649000000    -2.189000000
O     9.982000000    -2.427000000    -3.388000000
H    10.114000000    -2.234000000    -2.460000000
H     9.034000000    -2.383000000    -3.510000000
O     3.553000000    -1.398000000    -7.863000000
H     3.283000000    -0.584000000    -8.288000000
H     3.581000000    -1.183000000    -6.930000000
O     1.796000000    -6.658000000    -6.035000000
H     0.998000000    -6.134000000    -5.967000000
H     2.376000000    -6.300000000    -5.362000000
O     6.686000000     0.777000000    -7.438000000
H     7.144000000    -0.006000000    -7.745000000
H     6.526000000     0.612000000    -6.508000000
O     7.841000000    -2.178000000     1.614000000
H     8.102000000    -1.329000000     1.970000000
H     7.363000000    -2.600000000     2.327000000
O     4.923000000     3.490000000    -5.023000000
H     4.999000000     4.402000000    -5.304000000
H     5.036000000     3.521000000    -4.073000000
