215
-1450.95110
C     0.601000000    -4.727000000     2.331000000
H     0.086000000    -5.244000000     1.525000000
C     0.126000000    -3.595000000     2.976000000
C     0.904000000    -2.941000000     3.932000000
H     0.518000000    -2.096000000     4.496000000
C    -1.218000000    -3.015000000     2.624000000
O    -2.090000000    -4.062000000     2.171000000
H    -1.114000000    -2.193000000     1.900000000
O    -1.824000000    -2.501000000     3.812000000
C    -2.504000000    -1.296000000     3.611000000
C    -1.842000000    -0.143000000     4.005000000
H    -0.868000000    -0.150000000     4.488000000
C    -2.296000000     1.157000000     3.652000000
O    -1.456000000     2.211000000     3.794000000
C    -3.533000000     1.229000000     2.993000000
C    -4.124000000     2.610000000     2.556000000
H    -5.216000000     2.587000000     2.530000000
C    -3.499000000     3.165000000     1.238000000
C    -4.167000000     2.938000000     0.036000000
H    -5.137000000     2.448000000     0.043000000
H    -3.924000000     3.294000000     3.383000000
C    -4.307000000     0.069000000     2.717000000
H    -5.264000000     0.111000000     2.203000000
C    -3.765000000    -1.261000000     2.976000000
C    -4.478000000    -2.473000000     2.405000000
H    -5.552000000    -2.304000000     2.302000000
H    -4.237000000    -3.253000000     3.130000000
C    -3.874000000    -2.847000000     1.072000000
C    -4.386000000    -2.225000000    -0.085000000
H    -5.156000000    -1.458000000    -0.058000000
C    -2.732000000    -3.692000000     0.942000000
C    -2.282000000    -4.046000000    -0.275000000
H    -1.437000000    -4.728000000    -0.223000000
C    -2.828000000    -3.508000000    -1.349000000
O    -2.214000000    -3.667000000    -2.527000000
C    -1.305000000    -2.698000000    -2.955000000
C     0.005000000    -3.378000000    -3.172000000
C     1.052000000    -2.519000000    -3.499000000
H     0.811000000    -1.483000000    -3.723000000
C     0.313000000    -4.758000000    -2.967000000
H    -0.434000000    -5.441000000    -2.574000000
O    -1.900000000    -2.061000000    -4.061000000
H    -1.165000000    -1.971000000    -2.142000000
C    -3.878000000    -2.543000000    -1.296000000
C    -4.543000000    -1.977000000    -2.588000000
H    -5.578000000    -1.699000000    -2.383000000
H    -4.594000000    -2.654000000    -3.444000000
C    -3.781000000    -0.720000000    -3.100000000
C    -4.296000000     0.545000000    -2.769000000
H    -5.236000000     0.683000000    -2.242000000
C    -2.537000000    -0.871000000    -3.803000000
C    -1.809000000     0.330000000    -4.136000000
H    -0.859000000     0.145000000    -4.629000000
C    -2.281000000     1.573000000    -3.605000000
O    -1.496000000     2.664000000    -3.899000000
C    -0.718000000     3.122000000    -2.724000000
C     0.644000000     3.711000000    -3.062000000
C     1.410000000     3.024000000    -4.044000000
H     0.962000000     2.165000000    -4.538000000
C     1.262000000     4.770000000    -2.459000000
H     0.718000000     5.378000000    -1.741000000
O    -1.553000000     4.146000000    -2.214000000
H    -0.603000000     2.314000000    -1.986000000
C    -3.535000000     1.700000000    -3.049000000
C    -4.065000000     3.068000000    -2.535000000
H    -5.151000000     3.092000000    -2.423000000
H    -3.830000000     3.888000000    -3.216000000
C    -3.556000000     3.352000000    -1.138000000
C    -2.271000000     3.895000000    -1.124000000
C    -1.634000000     4.144000000     0.060000000
H    -0.590000000     4.437000000     0.145000000
C    -2.270000000     3.793000000     1.209000000
O    -1.518000000     3.980000000     2.356000000
C    -0.829000000     2.787000000     2.653000000
H    -0.852000000     2.056000000     1.832000000
C     0.625000000     3.198000000     2.963000000
C     1.526000000     2.156000000     3.392000000
H     1.262000000     1.104000000     3.455000000
C     1.108000000     4.473000000     2.680000000
H     0.560000000     5.347000000     2.337000000
C     2.467000000     4.681000000     2.905000000
O     2.953000000     5.942000000     2.731000000
C     3.328000000     3.727000000     3.332000000
H     4.308000000     3.907000000     3.766000000
C     2.843000000     2.477000000     3.641000000
O     3.687000000     1.476000000     4.077000000
C     3.339000000     0.564000000     5.096000000
C     3.309000000    -0.770000000     4.777000000
H     3.615000000    -1.091000000     3.785000000
C     2.991000000     0.978000000     6.325000000
H     3.058000000     2.027000000     6.602000000
C     2.431000000     0.131000000     7.269000000
H     2.124000000     0.560000000     8.220000000
C     2.403000000    -1.245000000     6.964000000
H     1.884000000    -1.887000000     7.670000000
C     2.899000000    -1.686000000     5.778000000
O     2.866000000    -2.999000000     5.412000000
C     2.167000000    -3.468000000     4.255000000
C     2.623000000    -4.605000000     3.656000000
H     3.535000000    -4.970000000     4.122000000
C     1.826000000    -5.260000000     2.690000000
O     2.251000000    -6.371000000     2.106000000
C     1.778000000    -6.998000000     1.002000000
C     2.285000000    -6.510000000    -0.252000000
H     2.997000000    -5.689000000    -0.273000000
C     0.867000000    -8.039000000     1.038000000
H     0.488000000    -8.501000000     1.947000000
C     0.341000000    -8.549000000    -0.158000000
H    -0.324000000    -9.403000000    -0.061000000
C     0.573000000    -7.914000000    -1.356000000
H     0.000000000    -8.160000000    -2.246000000
C     1.586000000    -6.930000000    -1.394000000
O     1.905000000    -6.469000000    -2.697000000
C     1.669000000    -5.198000000    -2.950000000
C     2.669000000    -4.312000000    -3.375000000
H     3.666000000    -4.741000000    -3.444000000
C     2.377000000    -2.924000000    -3.603000000
O     3.425000000    -2.099000000    -3.995000000
C     3.263000000    -1.056000000    -4.928000000
C     3.534000000     0.254000000    -4.535000000
H     3.764000000     0.504000000    -3.502000000
C     2.853000000    -1.379000000    -6.269000000
H     2.685000000    -2.420000000    -6.533000000
C     2.657000000    -0.360000000    -7.208000000
H     2.473000000    -0.639000000    -8.242000000
C     2.865000000     0.937000000    -6.778000000
H     2.734000000     1.813000000    -7.408000000
C     3.237000000     1.236000000    -5.427000000
O     3.499000000     2.541000000    -5.088000000
C     2.681000000     3.313000000    -4.313000000
C     3.261000000     4.383000000    -3.653000000
H     4.334000000     4.552000000    -3.682000000
C     2.572000000     5.142000000    -2.728000000
O     3.129000000     6.249000000    -2.165000000
C     2.744000000     6.696000000    -0.897000000
C     2.132000000     7.942000000    -0.801000000
H     1.712000000     8.376000000    -1.704000000
C     1.702000000     8.439000000     0.453000000
H     1.179000000     9.392000000     0.471000000
C     2.141000000     7.825000000     1.670000000
H     1.893000000     8.286000000     2.623000000
C     2.718000000     6.585000000     1.588000000
C     2.953000000     5.990000000     0.320000000
H     3.503000000     5.058000000     0.217000000
C     1.989000000    -1.843000000    -0.652000000
H     2.421000000    -2.826000000    -0.821000000
C     0.665000000    -1.655000000    -0.280000000
H     0.111000000    -2.568000000    -0.077000000
C     0.025000000    -0.420000000    -0.230000000
H    -1.059000000    -0.301000000    -0.026000000
C     0.768000000     0.719000000    -0.544000000
H     0.352000000     1.718000000    -0.438000000
C     2.175000000     0.574000000    -0.676000000
H     2.778000000     1.476000000    -0.615000000
C     2.771000000    -0.690000000    -0.881000000
C     4.231000000    -0.825000000    -1.167000000
O     4.919000000     0.152000000    -1.328000000
O     4.823000000    -1.892000000    -1.287000000
O     6.509000000    -5.137000000    -0.375000000
H     6.281000000    -6.067000000    -0.367000000
H     6.249000000    -4.820000000     0.490000000
O     7.496000000    -1.440000000     4.081000000
H     7.475000000    -1.230000000     5.014000000
H     6.819000000    -0.886000000     3.695000000
O     5.768000000     0.086000000     2.445000000
H     5.985000000     0.667000000     1.716000000
H     4.903000000     0.377000000     2.735000000
O     6.970000000    -3.709000000     2.277000000
H     6.024000000    -3.655000000     2.139000000
H     7.197000000    -2.884000000     2.706000000
O     6.671000000     0.674000000    -3.121000000
H     7.513000000     0.507000000    -2.699000000
H     6.023000000     0.518000000    -2.433000000
O     9.029000000     0.874000000    -1.676000000
H     8.655000000     0.176000000    -1.138000000
H     9.758000000     0.457000000    -2.135000000
O     7.480000000    -6.354000000     2.075000000
H     7.194000000    -5.440000000     2.049000000
H     8.426000000    -6.305000000     2.208000000
O     4.423000000    -3.168000000     1.025000000
H     4.748000000    -2.657000000     0.284000000
H     3.538000000    -3.427000000     0.769000000
O     6.237000000     1.936000000    -5.560000000
H     6.360000000     1.490000000    -4.722000000
H     5.303000000     2.142000000    -5.586000000
O     9.336000000     2.083000000     1.010000000
H     9.282000000     2.980000000     0.680000000
H     8.988000000     1.545000000     0.298000000
O     7.172000000    -0.579000000    -0.148000000
H     6.892000000    -0.532000000     0.767000000
H     6.356000000    -0.591000000    -0.648000000
O     5.664000000     2.078000000     0.316000000
H     5.432000000     1.381000000    -0.299000000
H     5.265000000     2.866000000    -0.054000000
O     7.064000000     4.071000000     2.078000000
H     7.058000000     4.017000000     3.034000000
H     6.545000000     3.320000000     1.792000000
O     7.194000000    -5.381000000    -4.460000000
H     6.711000000    -4.798000000    -3.873000000
H     8.072000000    -5.428000000    -4.082000000
O     6.986000000    -2.336000000    -7.316000000
H     6.673000000    -2.182000000    -6.425000000
H     6.353000000    -2.948000000    -7.691000000
O     8.767000000    -2.651000000    -1.322000000
H     8.925000000    -2.277000000    -0.455000000
H     7.814000000    -2.664000000    -1.407000000
O     7.387000000     3.814000000    -1.576000000
H     7.188000000     2.880000000    -1.515000000
H     8.243000000     3.850000000    -2.003000000
O     6.221000000    -3.737000000    -2.686000000
H     6.369000000    -4.182000000    -1.852000000
H     5.512000000    -3.119000000    -2.504000000
O     6.507000000    -1.721000000    -4.694000000
H     6.397000000    -2.324000000    -3.959000000
H     6.052000000    -0.925000000    -4.421000000
