215
-1457.99851
C     0.073000000    -5.047000000     2.188000000
H    -0.477000000    -5.202000000     1.263000000
C    -0.308000000    -3.968000000     3.018000000
C     0.557000000    -3.631000000     4.112000000
H     0.233000000    -2.863000000     4.809000000
C    -1.531000000    -3.185000000     2.662000000
O    -2.474000000    -3.988000000     1.998000000
H    -1.305000000    -2.379000000     1.949000000
O    -2.071000000    -2.568000000     3.864000000
C    -2.589000000    -1.264000000     3.688000000
C    -1.790000000    -0.242000000     4.164000000
H    -0.797000000    -0.556000000     4.474000000
C    -2.078000000     1.097000000     3.994000000
O    -1.118000000     2.054000000     4.220000000
C    -3.257000000     1.432000000     3.254000000
C    -3.745000000     2.878000000     3.110000000
H    -4.829000000     2.898000000     2.976000000
C    -3.112000000     3.431000000     1.837000000
C    -3.818000000     3.402000000     0.611000000
H    -4.776000000     2.897000000     0.707000000
H    -3.564000000     3.494000000     3.993000000
C    -4.031000000     0.369000000     2.752000000
H    -4.958000000     0.681000000     2.276000000
C    -3.792000000    -1.003000000     3.002000000
C    -4.707000000    -2.145000000     2.554000000
H    -5.737000000    -1.782000000     2.539000000
H    -4.766000000    -3.029000000     3.193000000
C    -4.242000000    -2.547000000     1.122000000
C    -4.871000000    -2.112000000    -0.010000000
H    -5.697000000    -1.416000000     0.112000000
C    -3.133000000    -3.391000000     0.956000000
C    -2.677000000    -3.839000000    -0.281000000
H    -1.840000000    -4.505000000    -0.476000000
C    -3.211000000    -3.123000000    -1.396000000
O    -2.504000000    -3.329000000    -2.598000000
C    -1.616000000    -2.281000000    -3.027000000
C    -0.240000000    -2.810000000    -3.448000000
C     0.745000000    -1.966000000    -3.932000000
H     0.479000000    -0.939000000    -4.168000000
C     0.129000000    -4.116000000    -3.199000000
H    -0.576000000    -4.842000000    -2.801000000
O    -2.134000000    -1.323000000    -4.022000000
H    -1.331000000    -1.624000000    -2.192000000
C    -4.256000000    -2.213000000    -1.282000000
C    -4.838000000    -1.395000000    -2.500000000
H    -5.849000000    -1.078000000    -2.237000000
H    -4.995000000    -2.001000000    -3.395000000
C    -3.987000000    -0.163000000    -2.829000000
C    -4.398000000     1.085000000    -2.388000000
H    -5.360000000     1.148000000    -1.887000000
C    -2.734000000    -0.174000000    -3.537000000
C    -1.934000000     0.901000000    -3.695000000
H    -1.019000000     0.871000000    -4.281000000
C    -2.405000000     2.137000000    -3.282000000
O    -1.632000000     3.171000000    -3.374000000
C    -0.589000000     3.522000000    -2.359000000
C     0.748000000     3.864000000    -2.996000000
C     1.032000000     3.468000000    -4.280000000
H     0.317000000     3.003000000    -4.954000000
C     1.663000000     4.489000000    -2.165000000
H     1.367000000     4.755000000    -1.153000000
O    -1.142000000     4.636000000    -1.579000000
H    -0.446000000     2.631000000    -1.731000000
C    -3.579000000     2.254000000    -2.547000000
C    -3.994000000     3.582000000    -1.870000000
H    -5.058000000     3.589000000    -1.626000000
H    -3.740000000     4.448000000    -2.485000000
C    -3.236000000     3.771000000    -0.609000000
C    -1.963000000     4.345000000    -0.527000000
C    -1.265000000     4.432000000     0.648000000
H    -0.231000000     4.770000000     0.658000000
C    -1.851000000     4.072000000     1.808000000
O    -1.017000000     4.020000000     2.903000000
C    -0.431000000     2.720000000     3.214000000
H    -0.683000000     2.198000000     2.279000000
C     1.138000000     2.731000000     3.417000000
C     1.785000000     1.586000000     3.822000000
H     1.199000000     0.695000000     4.033000000
C     1.936000000     3.889000000     3.130000000
H     1.525000000     4.780000000     2.661000000
C     3.327000000     3.845000000     3.165000000
O     4.124000000     4.879000000     2.782000000
C     3.930000000     2.733000000     3.575000000
H     5.009000000     2.684000000     3.454000000
C     3.199000000     1.572000000     3.912000000
O     3.988000000     0.495000000     4.291000000
C     3.436000000    -0.434000000     5.152000000
C     3.381000000    -1.760000000     4.832000000
H     3.792000000    -2.133000000     3.897000000
C     3.048000000    -0.030000000     6.434000000
H     3.173000000     1.032000000     6.628000000
C     2.505000000    -0.920000000     7.365000000
H     2.128000000    -0.629000000     8.342000000
C     2.331000000    -2.255000000     6.982000000
H     1.908000000    -2.905000000     7.744000000
C     2.741000000    -2.703000000     5.751000000
O     2.587000000    -3.950000000     5.293000000
C     1.711000000    -4.361000000     4.281000000
C     2.041000000    -5.464000000     3.522000000
H     2.916000000    -6.035000000     3.820000000
C     1.235000000    -5.772000000     2.427000000
O     1.719000000    -6.808000000     1.631000000
C     1.231000000    -6.977000000     0.384000000
C     1.691000000    -6.226000000    -0.661000000
H     2.298000000    -5.371000000    -0.375000000
C     0.308000000    -8.012000000     0.092000000
H     0.009000000    -8.649000000     0.920000000
C    -0.022000000    -8.374000000    -1.206000000
H    -0.574000000    -9.283000000    -1.431000000
C     0.474000000    -7.592000000    -2.200000000
H     0.352000000    -7.970000000    -3.212000000
C     1.286000000    -6.506000000    -1.979000000
O     1.872000000    -5.847000000    -3.010000000
C     1.482000000    -4.532000000    -3.301000000
C     2.479000000    -3.734000000    -3.898000000
H     3.504000000    -4.086000000    -3.985000000
C     2.057000000    -2.444000000    -4.209000000
O     2.964000000    -1.553000000    -4.756000000
C     2.573000000    -0.535000000    -5.683000000
C     2.765000000     0.805000000    -5.289000000
H     3.181000000     1.141000000    -4.343000000
C     1.980000000    -0.835000000    -6.904000000
H     1.892000000    -1.854000000    -7.273000000
C     1.687000000     0.106000000    -7.853000000
H     1.310000000    -0.258000000    -8.805000000
C     1.939000000     1.438000000    -7.564000000
H     1.687000000     2.239000000    -8.253000000
C     2.475000000     1.777000000    -6.263000000
O     2.522000000     3.138000000    -5.970000000
C     2.301000000     3.598000000    -4.716000000
C     3.218000000     4.281000000    -3.979000000
H     4.202000000     4.537000000    -4.364000000
C     2.942000000     4.755000000    -2.681000000
O     3.827000000     5.548000000    -1.972000000
C     3.668000000     6.023000000    -0.670000000
C     3.608000000     7.395000000    -0.423000000
H     3.478000000     8.014000000    -1.307000000
C     3.640000000     7.948000000     0.849000000
H     3.708000000     9.027000000     0.956000000
C     3.735000000     7.112000000     1.942000000
H     3.875000000     7.522000000     2.938000000
C     3.802000000     5.676000000     1.731000000
C     3.814000000     5.159000000     0.431000000
H     3.955000000     4.102000000     0.219000000
C     1.782000000    -1.198000000    -0.098000000
H     1.920000000    -2.275000000    -0.134000000
C     0.497000000    -0.719000000     0.094000000
H    -0.339000000    -1.407000000    -0.001000000
C     0.291000000     0.628000000     0.133000000
H    -0.669000000     1.074000000     0.265000000
C     1.387000000     1.538000000     0.116000000
H     1.224000000     2.612000000     0.170000000
C     2.640000000     1.030000000    -0.077000000
H     3.453000000     1.751000000    -0.067000000
C     2.920000000    -0.337000000    -0.163000000
C     4.392000000    -0.757000000    -0.424000000
O     5.288000000     0.114000000    -0.548000000
O     4.653000000    -1.939000000    -0.498000000
O     7.227000000    -1.844000000     0.469000000
H     7.745000000    -2.061000000    -0.306000000
H     6.327000000    -1.783000000     0.146000000
O     7.215000000     3.536000000    -2.359000000
H     7.264000000     3.199000000    -3.253000000
H     7.157000000     2.753000000    -1.811000000
O     5.755000000     0.660000000     1.916000000
H     4.893000000     0.273000000     2.067000000
H     5.873000000     0.620000000     0.967000000
O     5.256000000    -5.955000000     2.710000000
H     5.370000000    -5.428000000     3.500000000
H     4.976000000    -5.329000000     2.042000000
O    10.266000000     2.603000000    -1.312000000
H     9.810000000     2.264000000    -2.082000000
H     9.607000000     3.126000000    -0.855000000
O     5.979000000    -0.135000000    -3.363000000
H     5.748000000    -1.050000000    -3.209000000
H     6.055000000     0.244000000    -2.487000000
O     8.032000000    -0.594000000     2.878000000
H     7.159000000    -0.448000000     3.244000000
H     7.873000000    -1.066000000     2.061000000
O     8.230000000    -2.633000000    -2.291000000
H     8.707000000    -3.290000000    -2.798000000
H     7.450000000    -2.446000000    -2.815000000
O     4.682000000    -5.662000000    -2.354000000
H     3.814000000    -6.043000000    -2.488000000
H     5.277000000    -6.411000000    -2.360000000
O     4.524000000    -4.555000000     0.533000000
H     4.633000000    -3.734000000     0.052000000
H     4.579000000    -5.235000000    -0.139000000
O     8.825000000    -5.912000000    -0.285000000
H     8.236000000    -6.214000000    -0.976000000
H     8.558000000    -5.007000000    -0.122000000
O     7.592000000     1.384000000    -0.916000000
H     6.865000000     0.856000000    -0.585000000
H     8.299000000     0.755000000    -1.059000000
O     7.600000000     2.553000000     2.511000000
H     8.169000000     2.124000000     3.151000000
H     6.947000000     1.890000000     2.289000000
O     6.272000000    -3.069000000    -5.617000000
H     5.869000000    -2.706000000    -4.828000000
H     7.202000000    -3.137000000    -5.400000000
O     8.744000000     4.082000000     0.370000000
H     8.313000000     3.630000000     1.096000000
H     8.069000000     4.144000000    -0.307000000
O     9.505000000    -0.388000000    -1.886000000
H     9.041000000    -1.219000000    -1.792000000
H     9.924000000    -0.444000000    -2.745000000
O     8.746000000    -3.857000000     1.978000000
H     8.055000000    -3.274000000     1.663000000
H     8.814000000    -3.665000000     2.913000000
O     5.409000000    -2.791000000    -2.782000000
H     5.232000000    -3.731000000    -2.825000000
H     4.953000000    -2.498000000    -1.993000000
O     7.300000000     1.791000000    -4.585000000
H     7.260000000     1.462000000    -5.483000000
H     6.776000000     1.169000000    -4.079000000
