215
-1444.04143
C     3.806000000    -2.546000000    -1.308000000
H     2.925000000    -3.059000000    -1.684000000
C     3.967000000    -2.268000000     0.032000000
C     5.214000000    -1.660000000     0.346000000
H     5.465000000    -1.370000000     1.364000000
C     2.909000000    -2.637000000     1.052000000
O     2.520000000    -4.014000000     0.901000000
H     2.059000000    -1.941000000     0.980000000
O     3.489000000    -2.428000000     2.369000000
C     2.745000000    -1.772000000     3.248000000
C     3.112000000    -0.472000000     3.478000000
H     3.980000000    -0.110000000     2.933000000
C     2.254000000     0.384000000     4.188000000
O     2.561000000     1.702000000     4.108000000
C     1.093000000    -0.177000000     4.742000000
C     0.103000000     0.734000000     5.603000000
H    -0.331000000     0.230000000     6.470000000
C    -0.984000000     1.224000000     4.631000000
C    -2.222000000     0.582000000     4.489000000
H    -2.409000000    -0.279000000     5.125000000
H     0.618000000     1.619000000     5.983000000
C     0.828000000    -1.533000000     4.592000000
H    -0.066000000    -1.926000000     5.070000000
C     1.664000000    -2.314000000     3.836000000
C     1.400000000    -3.788000000     3.632000000
H     0.992000000    -4.247000000     4.535000000
H     2.389000000    -4.236000000     3.513000000
C     0.575000000    -4.138000000     2.428000000
C    -0.805000000    -4.139000000     2.501000000
H    -1.184000000    -4.051000000     3.515000000
C     1.175000000    -4.287000000     1.163000000
C     0.302000000    -4.509000000     0.027000000
H     0.654000000    -4.668000000    -0.989000000
C    -1.071000000    -4.451000000     0.129000000
O    -1.792000000    -4.604000000    -1.030000000
C    -2.314000000    -3.325000000    -1.567000000
C    -2.156000000    -3.317000000    -3.071000000
C    -3.017000000    -2.571000000    -3.830000000
H    -3.766000000    -1.993000000    -3.294000000
C    -0.996000000    -3.851000000    -3.673000000
H    -0.214000000    -4.220000000    -3.015000000
O    -3.692000000    -3.294000000    -1.128000000
H    -1.667000000    -2.552000000    -1.127000000
C    -1.668000000    -4.384000000     1.409000000
C    -3.163000000    -4.337000000     1.570000000
H    -3.450000000    -4.649000000     2.576000000
H    -3.611000000    -5.043000000     0.867000000
C    -3.813000000    -3.030000000     1.311000000
C    -4.005000000    -2.165000000     2.370000000
H    -3.809000000    -2.513000000     3.381000000
C    -3.964000000    -2.563000000     0.009000000
C    -4.369000000    -1.297000000    -0.207000000
H    -4.397000000    -1.018000000    -1.257000000
C    -4.571000000    -0.394000000     0.812000000
O    -4.851000000     0.894000000     0.560000000
C    -3.728000000     1.776000000     0.481000000
C    -3.925000000     2.764000000    -0.622000000
C    -4.588000000     2.381000000    -1.792000000
H    -5.016000000     1.382000000    -1.831000000
C    -3.177000000     3.934000000    -0.615000000
H    -2.647000000     4.176000000     0.302000000
O    -3.622000000     2.470000000     1.718000000
H    -2.837000000     1.152000000     0.312000000
C    -4.346000000    -0.809000000     2.132000000
C    -4.361000000     0.160000000     3.331000000
H    -4.576000000    -0.394000000     4.247000000
H    -5.192000000     0.863000000     3.240000000
C    -3.119000000     0.959000000     3.503000000
C    -2.782000000     2.084000000     2.698000000
C    -1.607000000     2.770000000     2.850000000
H    -1.457000000     3.695000000     2.297000000
C    -0.687000000     2.384000000     3.834000000
O     0.569000000     3.035000000     4.065000000
C     1.702000000     2.553000000     3.239000000
H     1.327000000     1.811000000     2.519000000
C     2.416000000     3.695000000     2.402000000
C     3.660000000     3.310000000     1.824000000
H     4.003000000     2.342000000     2.182000000
C     1.798000000     4.779000000     1.842000000
H     0.764000000     4.930000000     2.142000000
C     2.427000000     5.631000000     0.957000000
O     1.747000000     6.775000000     0.463000000
C     3.756000000     5.372000000     0.594000000
H     4.236000000     6.086000000    -0.070000000
C     4.365000000     4.142000000     0.954000000
O     5.521000000     3.681000000     0.342000000
C     6.368000000     2.635000000     0.735000000
C     6.389000000     1.366000000     0.043000000
H     5.708000000     1.172000000    -0.781000000
C     7.193000000     2.803000000     1.851000000
H     7.126000000     3.783000000     2.316000000
C     8.042000000     1.820000000     2.265000000
H     8.689000000     1.952000000     3.129000000
C     8.066000000     0.603000000     1.603000000
H     8.679000000    -0.200000000     2.005000000
C     7.254000000     0.400000000     0.457000000
O     7.249000000    -0.777000000    -0.173000000
C     6.152000000    -1.395000000    -0.614000000
C     5.910000000    -1.634000000    -1.943000000
H     6.664000000    -1.343000000    -2.670000000
C     4.803000000    -2.371000000    -2.266000000
O     4.619000000    -2.750000000    -3.596000000
C     3.656000000    -3.732000000    -3.872000000
C     2.645000000    -3.495000000    -4.715000000
H     2.627000000    -2.485000000    -5.117000000
C     3.829000000    -5.042000000    -3.478000000
H     4.736000000    -5.396000000    -2.995000000
C     2.753000000    -5.967000000    -3.699000000
H     2.936000000    -6.978000000    -3.343000000
C     1.613000000    -5.643000000    -4.443000000
H     0.832000000    -6.384000000    -4.598000000
C     1.595000000    -4.361000000    -4.962000000
O     0.438000000    -3.900000000    -5.679000000
C    -0.780000000    -3.634000000    -5.028000000
C    -1.730000000    -2.891000000    -5.730000000
H    -1.485000000    -2.570000000    -6.740000000
C    -2.817000000    -2.321000000    -5.169000000
O    -3.544000000    -1.435000000    -5.907000000
C    -4.525000000    -0.693000000    -5.326000000
C    -4.258000000     0.626000000    -4.895000000
H    -3.287000000     1.097000000    -5.025000000
C    -5.779000000    -1.267000000    -5.240000000
H    -5.819000000    -2.307000000    -5.552000000
C    -6.748000000    -0.487000000    -4.625000000
H    -7.755000000    -0.895000000    -4.584000000
C    -6.529000000     0.813000000    -4.208000000
H    -7.337000000     1.467000000    -3.893000000
C    -5.312000000     1.364000000    -4.443000000
O    -5.163000000     2.721000000    -4.129000000
C    -4.534000000     3.142000000    -2.982000000
C    -3.888000000     4.380000000    -2.906000000
H    -3.882000000     5.064000000    -3.751000000
C    -3.131000000     4.726000000    -1.767000000
O    -2.380000000     5.896000000    -1.815000000
C    -1.675000000     6.357000000    -0.778000000
C    -2.347000000     7.064000000     0.228000000
H    -3.418000000     7.247000000     0.254000000
C    -1.655000000     7.658000000     1.208000000
H    -2.200000000     8.143000000     2.013000000
C    -0.246000000     7.464000000     1.316000000
H     0.247000000     7.898000000     2.182000000
C     0.401000000     6.851000000     0.346000000
C    -0.268000000     6.482000000    -0.865000000
H     0.218000000     6.176000000    -1.787000000
C     0.758000000    -0.269000000    -2.189000000
H     0.242000000    -0.411000000    -3.134000000
C     0.043000000    -0.361000000    -0.972000000
H    -1.024000000    -0.564000000    -1.019000000
C     0.586000000     0.017000000     0.226000000
H    -0.073000000    -0.022000000     1.094000000
C     1.928000000     0.464000000     0.199000000
H     2.452000000     0.707000000     1.120000000
C     2.675000000     0.568000000    -0.980000000
H     3.707000000     0.908000000    -0.992000000
C     2.102000000     0.174000000    -2.188000000
C     2.786000000     0.575000000    -3.475000000
O     3.715000000     1.301000000    -3.328000000
O     2.218000000     0.475000000    -4.578000000
O     2.121000000     5.174000000    -3.774000000
H     2.860000000     4.853000000    -4.291000000
H     2.088000000     4.591000000    -3.016000000
O     7.811000000     2.484000000    -4.163000000
H     8.271000000     2.178000000    -3.382000000
H     7.126000000     1.832000000    -4.309000000
O     3.532000000     3.322000000    -5.335000000
H     3.545000000     2.575000000    -4.736000000
H     2.909000000     3.071000000    -6.017000000
O     5.898000000    -3.949000000    -6.061000000
H     5.990000000    -3.004000000    -5.941000000
H     6.528000000    -4.331000000    -5.450000000
O    -1.735000000     0.378000000    -8.291000000
H    -0.921000000     0.443000000    -8.791000000
H    -1.452000000     0.308000000    -7.380000000
O     9.151000000     1.165000000    -1.908000000
H     8.255000000     1.059000000    -1.587000000
H     9.637000000     1.501000000    -1.155000000
O     6.259000000     4.730000000    -7.399000000
H     6.008000000     4.541000000    -6.495000000
H     6.048000000     5.655000000    -7.518000000
O     1.774000000     2.129000000    -7.303000000
H     1.502000000     1.922000000    -8.197000000
H     1.272000000     1.527000000    -6.754000000
O    -0.657000000     4.433000000    -4.092000000
H    -1.096000000     5.196000000    -3.717000000
H     0.275000000     4.648000000    -4.048000000
O     6.113000000     0.583000000    -4.259000000
H     6.146000000    -0.316000000    -4.586000000
H     5.204000000     0.704000000    -3.984000000
O    -1.284000000     1.925000000    -3.716000000
H    -0.642000000     1.738000000    -3.032000000
H    -1.110000000     2.832000000    -3.967000000
O     2.581000000     3.374000000    -1.878000000
H     2.894000000     2.629000000    -2.392000000
H     2.576000000     3.056000000    -0.975000000
O    -0.422000000     4.403000000    -7.550000000
H    -1.149000000     3.951000000    -7.976000000
H     0.253000000     3.732000000    -7.450000000
O     4.983000000     6.773000000    -4.683000000
H     5.701000000     7.404000000    -4.739000000
H     5.401000000     5.961000000    -4.396000000
O     6.551000000    -1.050000000    -7.819000000
H     6.297000000    -1.298000000    -8.708000000
H     5.750000000    -0.700000000    -7.430000000
O     6.284000000     5.582000000    -1.802000000
H     6.178000000     5.065000000    -1.004000000
H     5.851000000     5.065000000    -2.482000000
O     0.053000000     0.250000000    -5.890000000
H     0.955000000     0.237000000    -5.572000000
H    -0.459000000     0.569000000    -5.147000000
O     4.235000000    -0.147000000    -6.834000000
H     3.969000000    -0.291000000    -5.926000000
H     3.670000000     0.564000000    -7.139000000
O     5.580000000     4.275000000    -3.931000000
H     4.852000000     3.830000000    -4.364000000
H     6.325000000     3.685000000    -4.050000000
