215
-1463.37712
C     0.916000000    -3.199000000     3.901000000
H     0.492000000    -3.934000000     3.221000000
C     0.047000000    -2.163000000     4.359000000
C     0.471000000    -1.269000000     5.344000000
H    -0.129000000    -0.430000000     5.687000000
C    -1.346000000    -2.135000000     3.772000000
O    -1.973000000    -3.389000000     3.394000000
H    -1.306000000    -1.449000000     2.913000000
O    -2.278000000    -1.334000000     4.599000000
C    -2.859000000    -0.310000000     3.853000000
C    -2.222000000     0.961000000     3.918000000
H    -1.324000000     1.142000000     4.502000000
C    -2.730000000     1.980000000     3.123000000
O    -1.961000000     3.125000000     3.098000000
C    -3.838000000     1.815000000     2.262000000
C    -4.371000000     2.928000000     1.444000000
H    -5.454000000     2.961000000     1.310000000
C    -3.680000000     3.080000000     0.150000000
C    -4.192000000     2.398000000    -1.003000000
H    -5.090000000     1.787000000    -1.046000000
H    -4.263000000     3.898000000     1.934000000
C    -4.481000000     0.598000000     2.257000000
H    -5.290000000     0.393000000     1.560000000
C    -3.929000000    -0.482000000     3.007000000
C    -4.601000000    -1.854000000     2.917000000
H    -5.654000000    -1.810000000     2.632000000
H    -4.563000000    -2.396000000     3.864000000
C    -3.839000000    -2.728000000     1.885000000
C    -4.329000000    -2.737000000     0.562000000
H    -5.265000000    -2.259000000     0.284000000
C    -2.652000000    -3.378000000     2.171000000
C    -1.964000000    -3.958000000     1.116000000
H    -1.001000000    -4.387000000     1.382000000
C    -2.392000000    -3.941000000    -0.194000000
O    -1.433000000    -4.420000000    -1.086000000
C    -0.660000000    -3.509000000    -1.901000000
C     0.762000000    -4.008000000    -2.183000000
C     1.356000000    -3.762000000    -3.390000000
H     0.714000000    -3.464000000    -4.215000000
C     1.494000000    -4.585000000    -1.101000000
H     1.078000000    -4.796000000    -0.119000000
O    -1.524000000    -3.431000000    -3.123000000
H    -0.588000000    -2.529000000    -1.405000000
C    -3.587000000    -3.331000000    -0.510000000
C    -4.115000000    -3.275000000    -1.949000000
H    -5.202000000    -3.365000000    -1.993000000
H    -3.790000000    -4.195000000    -2.441000000
C    -3.483000000    -2.147000000    -2.697000000
C    -4.074000000    -0.851000000    -2.763000000
H    -5.017000000    -0.788000000    -2.225000000
C    -2.205000000    -2.279000000    -3.237000000
C    -1.648000000    -1.274000000    -3.983000000
H    -0.672000000    -1.455000000    -4.426000000
C    -2.142000000     0.012000000    -3.979000000
O    -1.396000000     1.044000000    -4.505000000
C    -0.720000000     1.927000000    -3.619000000
C     0.623000000     2.170000000    -4.219000000
C     1.224000000     1.255000000    -5.107000000
H     0.596000000     0.467000000    -5.515000000
C     1.354000000     3.274000000    -3.770000000
H     0.848000000     3.958000000    -3.093000000
O    -1.388000000     3.136000000    -3.361000000
H    -0.487000000     1.415000000    -2.674000000
C    -3.370000000     0.233000000    -3.363000000
C    -3.972000000     1.609000000    -3.352000000
H    -5.064000000     1.632000000    -3.368000000
H    -3.700000000     2.043000000    -4.317000000
C    -3.509000000     2.469000000    -2.217000000
C    -2.307000000     3.200000000    -2.348000000
C    -1.812000000     3.878000000    -1.253000000
H    -0.805000000     4.285000000    -1.288000000
C    -2.518000000     3.818000000    -0.016000000
O    -1.816000000     4.339000000     1.070000000
C    -1.238000000     3.405000000     1.942000000
H    -0.884000000     2.496000000     1.434000000
C     0.105000000     4.062000000     2.289000000
C     0.704000000     3.796000000     3.543000000
H     0.235000000     3.098000000     4.231000000
C     0.774000000     4.877000000     1.338000000
H     0.254000000     5.171000000     0.429000000
C     2.043000000     5.394000000     1.702000000
O     2.829000000     6.154000000     0.914000000
C     2.603000000     5.011000000     2.951000000
H     3.616000000     5.381000000     3.088000000
C     1.976000000     4.230000000     3.884000000
O     2.491000000     4.075000000     5.159000000
C     2.006000000     3.134000000     6.046000000
C     2.425000000     1.847000000     5.976000000
H     3.286000000     1.616000000     5.353000000
C     0.844000000     3.508000000     6.785000000
H     0.389000000     4.493000000     6.847000000
C     0.175000000     2.508000000     7.468000000
H    -0.758000000     2.633000000     8.011000000
C     0.718000000     1.195000000     7.497000000
H     0.293000000     0.444000000     8.158000000
C     1.761000000     0.861000000     6.713000000
O     2.243000000    -0.439000000     6.695000000
C     1.713000000    -1.360000000     5.827000000
C     2.530000000    -2.449000000     5.516000000
H     3.521000000    -2.500000000     5.959000000
C     2.161000000    -3.343000000     4.489000000
O     2.962000000    -4.445000000     4.213000000
C     2.715000000    -5.346000000     3.194000000
C     3.286000000    -4.974000000     1.999000000
H     4.005000000    -4.160000000     1.948000000
C     1.795000000    -6.374000000     3.261000000
H     1.310000000    -6.575000000     4.213000000
C     1.580000000    -7.145000000     2.170000000
H     0.745000000    -7.840000000     2.217000000
C     2.240000000    -6.867000000     0.946000000
H     2.040000000    -7.473000000     0.067000000
C     3.126000000    -5.806000000     0.889000000
O     3.663000000    -5.371000000    -0.314000000
C     2.888000000    -4.718000000    -1.285000000
C     3.541000000    -4.475000000    -2.522000000
H     4.579000000    -4.720000000    -2.729000000
C     2.778000000    -4.012000000    -3.560000000
O     3.410000000    -3.802000000    -4.751000000
C     2.976000000    -2.981000000    -5.715000000
C     2.976000000    -1.571000000    -5.452000000
H     3.282000000    -1.201000000    -4.477000000
C     2.839000000    -3.458000000    -6.996000000
H     2.898000000    -4.524000000    -7.201000000
C     2.607000000    -2.669000000    -8.099000000
H     2.591000000    -3.039000000    -9.121000000
C     2.661000000    -1.261000000    -7.870000000
H     2.548000000    -0.543000000    -8.678000000
C     2.863000000    -0.731000000    -6.597000000
O     2.986000000     0.638000000    -6.531000000
C     2.545000000     1.385000000    -5.469000000
C     3.299000000     2.347000000    -4.887000000
H     4.350000000     2.391000000    -5.159000000
C     2.759000000     3.293000000    -4.027000000
O     3.557000000     4.344000000    -3.549000000
C     3.133000000     5.379000000    -2.686000000
C     2.820000000     6.606000000    -3.251000000
H     2.869000000     6.743000000    -4.328000000
C     2.309000000     7.619000000    -2.376000000
H     2.022000000     8.551000000    -2.855000000
C     2.299000000     7.402000000    -1.011000000
H     2.005000000     8.263000000    -0.415000000
C     2.698000000     6.166000000    -0.452000000
C     3.129000000     5.169000000    -1.289000000
H     3.482000000     4.231000000    -0.866000000
C     2.609000000    -1.483000000     0.012000000
H     2.925000000    -2.508000000     0.191000000
C     1.394000000    -1.102000000     0.603000000
H     0.817000000    -1.742000000     1.265000000
C     0.994000000     0.220000000     0.418000000
H     0.044000000     0.494000000     0.963000000
C     1.716000000     1.065000000    -0.377000000
H     1.241000000     2.037000000    -0.490000000
C     2.775000000     0.621000000    -1.145000000
H     3.281000000     1.214000000    -1.902000000
C     3.303000000    -0.681000000    -0.935000000
C     4.605000000    -1.117000000    -1.604000000
O     5.227000000    -0.268000000    -2.246000000
O     5.217000000    -2.062000000    -1.156000000
O     7.190000000     3.206000000    -5.998000000
H     6.772000000     2.898000000    -6.802000000
H     7.020000000     2.514000000    -5.359000000
O     6.162000000    -7.161000000    -0.574000000
H     5.827000000    -6.269000000    -0.670000000
H     6.132000000    -7.524000000    -1.459000000
O     6.750000000     1.308000000     2.721000000
H     6.263000000     0.995000000     1.958000000
H     6.209000000     2.013000000     3.077000000
O     8.293000000    -4.654000000    -2.748000000
H     8.017000000    -4.916000000    -1.870000000
H     7.536000000    -4.194000000    -3.110000000
O     9.972000000    -1.933000000    -3.648000000
H     9.217000000    -2.452000000    -3.375000000
H     9.874000000    -1.103000000    -3.182000000
O     7.049000000     0.899000000    -4.168000000
H     7.619000000     0.132000000    -4.230000000
H     6.244000000     0.567000000    -3.771000000
O     5.319000000    -1.431000000     1.430000000
H     5.087000000    -1.637000000     0.525000000
H     4.710000000    -0.737000000     1.682000000
O     6.328000000    -3.329000000    -3.778000000
H     5.410000000    -3.459000000    -4.018000000
H     6.330000000    -2.519000000    -3.269000000
O     6.505000000    -3.139000000     3.428000000
H     6.134000000    -3.006000000     2.556000000
H     6.551000000    -4.090000000     3.526000000
O     7.710000000    -1.475000000    -2.224000000
H     6.838000000    -1.232000000    -1.912000000
H     8.150000000    -1.832000000    -1.452000000
O     3.933000000     0.790000000     2.015000000
H     4.285000000     0.891000000     1.130000000
H     3.029000000     0.503000000     1.882000000
O     7.274000000    -1.237000000    -6.030000000
H     8.081000000    -1.016000000    -6.496000000
H     7.510000000    -1.989000000    -5.487000000
O     6.218000000     3.911000000    -0.150000000
H     7.112000000     3.641000000    -0.363000000
H     6.327000000     4.631000000     0.470000000
O     8.752000000     3.188000000    -0.966000000
H     9.311000000     2.411000000    -0.964000000
H     8.409000000     3.234000000    -1.859000000
O     9.744000000     1.577000000    -3.965000000
H     9.554000000     1.386000000    -3.046000000
H     8.885000000     1.721000000    -4.362000000
O     5.399000000     1.480000000    -0.132000000
H     5.562000000     1.087000000    -0.990000000
H     5.255000000     2.408000000    -0.318000000
O     9.985000000    -0.720000000     0.921000000
H     9.376000000    -0.780000000     1.657000000
H    10.788000000    -0.365000000     1.303000000
O     6.047000000    -4.145000000     0.252000000
H     6.993000000    -3.997000000     0.253000000
H     5.706000000    -3.511000000    -0.379000000
O     8.813000000    -3.324000000    -0.104000000
H     9.277000000    -2.586000000     0.291000000
H     8.872000000    -4.022000000     0.549000000
