215
-1482.61147
C     0.795000000    -3.485000000     4.438000000
H     0.485000000    -4.321000000     3.816000000
C     0.156000000    -2.194000000     4.592000000
C     0.807000000    -1.143000000     5.257000000
H     0.448000000    -0.121000000     5.160000000
C    -1.195000000    -1.896000000     3.866000000
O    -1.877000000    -3.062000000     3.431000000
H    -0.899000000    -1.338000000     2.966000000
O    -2.022000000    -1.067000000     4.685000000
C    -2.733000000    -0.124000000     4.043000000
C    -2.098000000     1.096000000     3.759000000
H    -1.146000000     1.385000000     4.195000000
C    -2.670000000     2.121000000     3.002000000
O    -2.097000000     3.366000000     2.901000000
C    -3.912000000     1.955000000     2.353000000
C    -4.459000000     2.943000000     1.388000000
H    -5.505000000     2.680000000     1.220000000
C    -3.693000000     2.842000000     0.051000000
C    -4.236000000     2.135000000    -1.020000000
H    -5.140000000     1.547000000    -0.887000000
H    -4.349000000     3.974000000     1.732000000
C    -4.326000000     0.665000000     2.377000000
H    -5.142000000     0.414000000     1.705000000
C    -3.793000000    -0.328000000     3.229000000
C    -4.372000000    -1.732000000     3.015000000
H    -5.424000000    -1.673000000     2.729000000
H    -4.365000000    -2.324000000     3.933000000
C    -3.665000000    -2.480000000     1.890000000
C    -4.195000000    -2.595000000     0.599000000
H    -5.160000000    -2.147000000     0.374000000
C    -2.401000000    -3.036000000     2.133000000
C    -1.683000000    -3.703000000     1.169000000
H    -0.738000000    -4.158000000     1.456000000
C    -2.237000000    -3.879000000    -0.106000000
O    -1.402000000    -4.480000000    -1.086000000
C    -0.732000000    -3.532000000    -1.974000000
C     0.762000000    -3.873000000    -2.036000000
C     1.462000000    -3.403000000    -3.082000000
H     1.021000000    -2.985000000    -3.983000000
C     1.305000000    -4.611000000    -0.968000000
H     0.645000000    -4.881000000    -0.148000000
O    -1.410000000    -3.564000000    -3.260000000
H    -0.888000000    -2.524000000    -1.562000000
C    -3.517000000    -3.312000000    -0.432000000
C    -3.997000000    -3.418000000    -1.863000000
H    -5.076000000    -3.268000000    -1.930000000
H    -3.787000000    -4.428000000    -2.221000000
C    -3.443000000    -2.330000000    -2.802000000
C    -4.026000000    -1.092000000    -2.845000000
H    -4.917000000    -0.850000000    -2.272000000
C    -2.181000000    -2.452000000    -3.437000000
C    -1.703000000    -1.405000000    -4.240000000
H    -0.760000000    -1.433000000    -4.781000000
C    -2.398000000    -0.224000000    -4.258000000
O    -1.712000000     0.852000000    -4.803000000
C    -0.959000000     1.705000000    -3.906000000
C     0.484000000     2.029000000    -4.358000000
C     1.078000000     1.234000000    -5.302000000
H     0.539000000     0.478000000    -5.867000000
C     1.153000000     3.139000000    -3.841000000
H     0.649000000     3.908000000    -3.262000000
O    -1.658000000     2.908000000    -3.567000000
H    -0.877000000     1.031000000    -3.041000000
C    -3.514000000     0.005000000    -3.491000000
C    -4.219000000     1.287000000    -3.364000000
H    -5.244000000     1.066000000    -3.059000000
H    -4.289000000     1.701000000    -4.372000000
C    -3.554000000     2.146000000    -2.252000000
C    -2.394000000     2.907000000    -2.411000000
C    -1.899000000     3.696000000    -1.395000000
H    -0.978000000     4.257000000    -1.530000000
C    -2.584000000     3.702000000    -0.203000000
O    -2.009000000     4.448000000     0.809000000
C    -1.250000000     3.628000000     1.721000000
H    -1.167000000     2.673000000     1.181000000
C     0.137000000     4.238000000     2.004000000
C     0.777000000     3.892000000     3.208000000
H     0.325000000     3.150000000     3.861000000
C     0.647000000     5.083000000     1.093000000
H     0.102000000     5.312000000     0.181000000
C     1.962000000     5.530000000     1.362000000
O     2.534000000     6.579000000     0.540000000
C     2.579000000     5.290000000     2.602000000
H     3.499000000     5.852000000     2.742000000
C     1.982000000     4.409000000     3.546000000
O     2.661000000     4.192000000     4.704000000
C     2.232000000     3.225000000     5.602000000
C     2.680000000     1.887000000     5.523000000
H     3.500000000     1.701000000     4.834000000
C     1.375000000     3.584000000     6.625000000
H     1.078000000     4.630000000     6.645000000
C     0.976000000     2.705000000     7.611000000
H     0.299000000     3.010000000     8.405000000
C     1.366000000     1.371000000     7.457000000
H     1.057000000     0.645000000     8.205000000
C     2.302000000     0.946000000     6.491000000
O     2.793000000    -0.309000000     6.367000000
C     2.090000000    -1.332000000     5.867000000
C     2.668000000    -2.616000000     5.725000000
H     3.615000000    -2.820000000     6.219000000
C     1.986000000    -3.656000000     5.014000000
O     2.705000000    -4.853000000     4.838000000
C     2.488000000    -5.634000000     3.689000000
C     2.941000000    -5.113000000     2.476000000
H     3.490000000    -4.175000000     2.471000000
C     1.691000000    -6.747000000     3.791000000
H     1.378000000    -7.131000000     4.758000000
C     1.552000000    -7.559000000     2.653000000
H     1.093000000    -8.538000000     2.764000000
C     2.007000000    -7.036000000     1.430000000
H     1.772000000    -7.590000000     0.525000000
C     2.655000000    -5.801000000     1.308000000
O     3.290000000    -5.552000000     0.101000000
C     2.685000000    -4.850000000    -0.969000000
C     3.475000000    -4.366000000    -1.974000000
H     4.539000000    -4.580000000    -2.043000000
C     2.857000000    -3.667000000    -3.035000000
O     3.731000000    -3.392000000    -4.162000000
C     3.395000000    -2.735000000    -5.299000000
C     3.301000000    -1.368000000    -5.376000000
H     3.297000000    -0.805000000    -4.446000000
C     3.326000000    -3.429000000    -6.478000000
H     3.472000000    -4.506000000    -6.516000000
C     3.144000000    -2.774000000    -7.693000000
H     3.022000000    -3.372000000    -8.592000000
C     2.937000000    -1.365000000    -7.809000000
H     2.629000000    -0.882000000    -8.732000000
C     2.990000000    -0.693000000    -6.576000000
O     2.989000000     0.678000000    -6.575000000
C     2.387000000     1.494000000    -5.670000000
C     3.156000000     2.482000000    -5.053000000
H     4.166000000     2.706000000    -5.387000000
C     2.504000000     3.307000000    -4.159000000
O     3.251000000     4.237000000    -3.553000000
C     2.756000000     5.331000000    -2.873000000
C     2.015000000     6.341000000    -3.574000000
H     1.939000000     6.346000000    -4.658000000
C     1.457000000     7.436000000    -2.855000000
H     0.881000000     8.168000000    -3.415000000
C     1.684000000     7.490000000    -1.488000000
H     1.310000000     8.344000000    -0.928000000
C     2.399000000     6.545000000    -0.830000000
C     2.911000000     5.433000000    -1.496000000
H     3.449000000     4.621000000    -1.012000000
C     2.013000000    -1.465000000     0.127000000
H     2.486000000    -2.367000000     0.507000000
C     0.701000000    -1.124000000     0.324000000
H     0.051000000    -1.737000000     0.943000000
C     0.171000000     0.154000000    -0.073000000
H    -0.869000000     0.449000000     0.261000000
C     0.999000000     0.984000000    -0.743000000
H     0.651000000     1.980000000    -1.005000000
C     2.348000000     0.628000000    -0.988000000
H     3.021000000     1.324000000    -1.482000000
C     2.831000000    -0.607000000    -0.554000000
C     4.251000000    -1.061000000    -0.812000000
O     4.895000000    -0.785000000    -1.858000000
O     4.806000000    -1.688000000     0.144000000
O     5.791000000    -6.888000000     0.161000000
H     5.459000000    -7.183000000    -0.687000000
H     5.047000000    -6.980000000     0.756000000
O     7.524000000    -5.031000000     2.228000000
H     7.328000000    -4.412000000     1.525000000
H     6.964000000    -5.785000000     2.046000000
O     4.378000000     3.062000000     1.166000000
H     4.433000000     2.443000000     0.438000000
H     4.837000000     3.842000000     0.853000000
O     8.640000000    -5.902000000    -1.005000000
H     8.024000000    -6.457000000    -1.484000000
H     8.111000000    -5.491000000    -0.322000000
O     5.949000000     0.594000000    -6.857000000
H     5.083000000     0.885000000    -6.570000000
H     6.343000000     0.208000000    -6.075000000
O     9.068000000    -2.059000000    -2.043000000
H     9.509000000    -2.467000000    -1.298000000
H     8.227000000    -2.511000000    -2.101000000
O     7.557000000     0.386000000     3.420000000
H     7.216000000    -0.333000000     3.953000000
H     6.917000000     1.090000000     3.529000000
O     6.430000000     0.857000000    -4.026000000
H     6.102000000     0.024000000    -3.687000000
H     6.067000000     1.516000000    -3.434000000
O     4.316000000    -1.379000000     2.749000000
H     4.455000000    -1.623000000     1.834000000
H     3.755000000    -0.605000000     2.708000000
O     6.658000000    -2.756000000    -2.693000000
H     5.979000000    -2.093000000    -2.575000000
H     6.633000000    -2.962000000    -3.627000000
O     6.252000000    -1.948000000     4.848000000
H     5.440000000    -1.741000000     4.386000000
H     6.259000000    -2.903000000     4.906000000
O     7.089000000    -0.246000000     0.463000000
H     6.282000000    -0.736000000     0.306000000
H     7.070000000    -0.046000000     1.399000000
O     2.342000000     1.082000000     2.590000000
H     2.878000000     1.799000000     2.250000000
H     1.610000000     1.019000000     1.976000000
O     6.597000000    -2.773000000    -5.388000000
H     5.816000000    -2.640000000    -5.926000000
H     6.878000000    -3.665000000    -5.591000000
O     9.074000000     0.434000000    -1.116000000
H     9.141000000    -0.388000000    -1.602000000
H     8.402000000     0.267000000    -0.455000000
O     5.761000000     1.654000000    -1.283000000
H     6.708000000     1.708000000    -1.151000000
H     5.616000000     0.769000000    -1.617000000
O     5.876000000     2.645000000     3.718000000
H     5.745000000     2.591000000     2.771000000
H     5.492000000     3.486000000     3.965000000
O     6.589000000    -3.657000000     0.136000000
H     6.550000000    -3.712000000    -0.819000000
H     5.863000000    -3.081000000     0.373000000
O    10.135000000    -3.029000000     0.147000000
H     9.957000000    -2.422000000     0.865000000
H     9.640000000    -3.818000000     0.372000000
