215
-1472.76953
C     0.225000000    -3.900000000     3.920000000
H    -0.189000000    -4.583000000     3.183000000
C    -0.390000000    -2.680000000     4.143000000
C     0.169000000    -1.769000000     5.048000000
H    -0.269000000    -0.778000000     5.126000000
C    -1.654000000    -2.351000000     3.359000000
O    -2.391000000    -3.519000000     2.970000000
H    -1.350000000    -1.823000000     2.443000000
O    -2.489000000    -1.517000000     4.093000000
C    -2.982000000    -0.380000000     3.476000000
C    -2.502000000     0.918000000     3.767000000
H    -1.689000000     1.005000000     4.483000000
C    -2.933000000     2.048000000     2.945000000
O    -2.302000000     3.294000000     3.136000000
C    -4.000000000     1.821000000     2.052000000
C    -4.594000000     2.969000000     1.165000000
H    -5.606000000     2.821000000     0.782000000
C    -3.785000000     3.154000000    -0.069000000
C    -4.207000000     2.551000000    -1.225000000
H    -5.144000000     2.001000000    -1.279000000
H    -4.602000000     3.822000000     1.847000000
C    -4.497000000     0.557000000     1.771000000
H    -5.381000000     0.423000000     1.152000000
C    -4.010000000    -0.536000000     2.508000000
C    -4.657000000    -1.948000000     2.290000000
H    -5.693000000    -1.723000000     2.029000000
H    -4.835000000    -2.444000000     3.246000000
C    -3.868000000    -2.754000000     1.289000000
C    -4.100000000    -2.613000000    -0.077000000
H    -4.914000000    -1.975000000    -0.411000000
C    -2.777000000    -3.535000000     1.662000000
C    -1.871000000    -4.118000000     0.730000000
H    -0.952000000    -4.620000000     1.023000000
C    -2.206000000    -3.985000000    -0.581000000
O    -1.361000000    -4.520000000    -1.570000000
C    -0.524000000    -3.536000000    -2.220000000
C     0.955000000    -4.025000000    -2.334000000
C     1.918000000    -3.320000000    -3.068000000
H     1.575000000    -2.474000000    -3.659000000
C     1.447000000    -5.037000000    -1.415000000
H     0.813000000    -5.449000000    -0.635000000
O    -1.019000000    -3.099000000    -3.531000000
H    -0.449000000    -2.624000000    -1.609000000
C    -3.378000000    -3.286000000    -1.016000000
C    -3.719000000    -3.150000000    -2.465000000
H    -4.781000000    -3.135000000    -2.716000000
H    -3.242000000    -4.011000000    -2.937000000
C    -3.087000000    -1.902000000    -3.107000000
C    -3.805000000    -0.715000000    -3.167000000
H    -4.805000000    -0.821000000    -2.757000000
C    -1.780000000    -1.899000000    -3.521000000
C    -1.170000000    -0.768000000    -4.074000000
H    -0.173000000    -0.837000000    -4.502000000
C    -1.881000000     0.389000000    -4.140000000
O    -1.202000000     1.493000000    -4.603000000
C    -0.536000000     2.260000000    -3.619000000
C     0.921000000     2.645000000    -4.037000000
C     1.695000000     1.795000000    -4.692000000
H     1.304000000     0.887000000    -5.144000000
C     1.524000000     3.761000000    -3.376000000
H     0.865000000     4.453000000    -2.859000000
O    -1.360000000     3.396000000    -3.410000000
H    -0.445000000     1.703000000    -2.675000000
C    -3.187000000     0.472000000    -3.628000000
C    -3.859000000     1.846000000    -3.623000000
H    -4.942000000     1.715000000    -3.656000000
H    -3.625000000     2.406000000    -4.530000000
C    -3.430000000     2.648000000    -2.372000000
C    -2.209000000     3.366000000    -2.364000000
C    -1.832000000     4.025000000    -1.210000000
H    -0.941000000     4.642000000    -1.118000000
C    -2.592000000     3.919000000    -0.048000000
O    -2.119000000     4.512000000     1.096000000
C    -1.406000000     3.710000000     2.095000000
H    -1.155000000     2.759000000     1.601000000
C    -0.171000000     4.352000000     2.643000000
C     0.506000000     3.684000000     3.676000000
H    -0.033000000     2.937000000     4.254000000
C     0.519000000     5.239000000     1.823000000
H     0.083000000     5.649000000     0.916000000
C     1.892000000     5.511000000     2.045000000
O     2.570000000     6.397000000     1.243000000
C     2.515000000     4.857000000     3.149000000
H     3.582000000     4.983000000     3.315000000
C     1.835000000     3.934000000     3.869000000
O     2.594000000     3.158000000     4.725000000
C     2.105000000     2.369000000     5.713000000
C     2.410000000     1.017000000     5.666000000
H     3.062000000     0.671000000     4.869000000
C     1.185000000     2.841000000     6.590000000
H     0.990000000     3.911000000     6.598000000
C     0.627000000     2.012000000     7.583000000
H    -0.128000000     2.334000000     8.296000000
C     0.883000000     0.576000000     7.508000000
H     0.434000000    -0.169000000     8.160000000
C     1.786000000     0.117000000     6.527000000
O     2.079000000    -1.199000000     6.452000000
C     1.395000000    -2.063000000     5.673000000
C     2.042000000    -3.246000000     5.367000000
H     2.956000000    -3.371000000     5.941000000
C     1.486000000    -4.135000000     4.490000000
O     2.223000000    -5.226000000     4.194000000
C     2.092000000    -5.994000000     3.051000000
C     2.747000000    -5.647000000     1.832000000
H     3.410000000    -4.792000000     1.722000000
C     1.393000000    -7.145000000     3.152000000
H     0.715000000    -7.302000000     3.987000000
C     1.353000000    -8.028000000     2.001000000
H     0.715000000    -8.890000000     2.178000000
C     2.027000000    -7.703000000     0.856000000
H     1.857000000    -8.471000000     0.106000000
C     2.688000000    -6.530000000     0.729000000
O     3.311000000    -6.210000000    -0.408000000
C     2.848000000    -5.266000000    -1.327000000
C     3.729000000    -4.595000000    -2.031000000
H     4.798000000    -4.701000000    -1.862000000
C     3.300000000    -3.632000000    -2.931000000
O     4.254000000    -3.033000000    -3.681000000
C     3.985000000    -2.335000000    -4.805000000
C     4.014000000    -0.939000000    -4.723000000
H     4.466000000    -0.556000000    -3.811000000
C     3.545000000    -2.960000000    -6.000000000
H     3.420000000    -4.028000000    -6.155000000
C     3.222000000    -2.122000000    -7.079000000
H     3.036000000    -2.647000000    -8.013000000
C     3.292000000    -0.701000000    -7.040000000
H     3.198000000    -0.014000000    -7.877000000
C     3.644000000    -0.110000000    -5.814000000
O     3.833000000     1.257000000    -5.732000000
C     3.050000000     2.042000000    -4.951000000
C     3.637000000     3.224000000    -4.432000000
H     4.690000000     3.408000000    -4.628000000
C     2.792000000     4.120000000    -3.771000000
O     3.387000000     5.240000000    -3.343000000
C     2.733000000     6.003000000    -2.417000000
C     1.962000000     7.038000000    -2.846000000
H     1.847000000     7.220000000    -3.912000000
C     1.209000000     7.792000000    -1.963000000
H     0.592000000     8.634000000    -2.266000000
C     1.406000000     7.581000000    -0.588000000
H     0.894000000     8.225000000     0.121000000
C     2.237000000     6.511000000    -0.130000000
C     2.958000000     5.806000000    -1.061000000
H     3.790000000     5.144000000    -0.834000000
C     2.618000000    -2.021000000     0.561000000
H     3.185000000    -2.728000000     1.162000000
C     1.257000000    -1.922000000     0.712000000
H     0.644000000    -2.509000000     1.392000000
C     0.640000000    -0.953000000    -0.065000000
H    -0.383000000    -0.892000000    -0.079000000
C     1.362000000    -0.238000000    -1.014000000
H     0.739000000     0.263000000    -1.751000000
C     2.739000000    -0.437000000    -1.203000000
H     3.289000000     0.186000000    -1.903000000
C     3.386000000    -1.273000000    -0.334000000
C     4.868000000    -1.415000000    -0.402000000
O     5.533000000    -1.099000000    -1.361000000
O     5.437000000    -1.865000000     0.576000000
O     8.137000000    -4.342000000     3.072000000
H     8.501000000    -3.472000000     3.236000000
H     7.876000000    -4.324000000     2.152000000
O     6.338000000    -6.715000000     0.174000000
H     5.558000000    -6.518000000    -0.344000000
H     6.743000000    -5.862000000     0.331000000
O     5.897000000     2.780000000     1.354000000
H     6.117000000     3.009000000     0.450000000
H     6.349000000     3.437000000     1.883000000
O     9.409000000    -5.342000000    -1.847000000
H     8.666000000    -5.520000000    -2.424000000
H     9.139000000    -5.688000000    -0.996000000
O     9.043000000    -1.030000000    -0.714000000
H     8.326000000    -0.782000000    -0.131000000
H     8.647000000    -1.640000000    -1.336000000
O     8.270000000     2.083000000     3.913000000
H     7.901000000     1.205000000     4.007000000
H     7.700000000     2.640000000     4.443000000
O     7.040000000    -0.692000000    -3.615000000
H     7.935000000    -0.926000000    -3.369000000
H     6.575000000    -0.618000000    -2.781000000
O     4.961000000    -0.709000000     3.052000000
H     4.972000000    -1.359000000     2.350000000
H     4.286000000    -0.083000000     2.789000000
O     6.904000000    -3.305000000    -2.173000000
H     6.396000000    -2.560000000    -1.853000000
H     7.008000000    -3.139000000    -3.110000000
O     7.162000000    -0.425000000     4.483000000
H     6.338000000    -0.463000000     3.996000000
H     6.907000000    -0.562000000     5.396000000
O     7.279000000    -0.071000000     1.003000000
H     6.577000000    -0.703000000     0.855000000
H     6.839000000     0.779000000     1.013000000
O    10.041000000    -2.876000000    -3.053000000
H    10.922000000    -2.734000000    -2.705000000
H     9.819000000    -3.767000000    -2.784000000
O     3.335000000     1.016000000     1.747000000
H     3.012000000     0.929000000     0.850000000
H     3.970000000     1.731000000     1.705000000
O     6.807000000    -0.853000000    -6.351000000
H     7.592000000    -1.375000000    -6.180000000
H     6.483000000    -0.617000000    -5.482000000
O    10.451000000     1.396000000     0.749000000
H    10.999000000     0.911000000     0.132000000
H     9.594000000     0.974000000     0.690000000
O     6.633000000     4.260000000    -1.214000000
H     7.195000000     4.116000000    -1.975000000
H     6.736000000     5.190000000    -1.013000000
O     9.093000000    -1.866000000     2.552000000
H     8.591000000    -1.320000000     3.157000000
H     8.817000000    -1.576000000     1.682000000
O     7.119000000    -4.098000000     0.500000000
H     7.408000000    -3.967000000    -0.404000000
H     6.393000000    -3.484000000     0.611000000
O    10.888000000    -3.841000000     0.338000000
H    10.477000000    -3.636000000     1.178000000
H    10.157000000    -3.901000000    -0.277000000
