215
-1466.67083
C    -0.763000000    -4.918000000     3.459000000
H    -1.248000000    -5.507000000     2.685000000
C    -1.149000000    -3.580000000     3.748000000
C    -0.465000000    -2.946000000     4.852000000
H    -0.826000000    -1.995000000     5.236000000
C    -2.232000000    -2.823000000     2.946000000
O    -3.000000000    -3.819000000     2.188000000
H    -1.802000000    -2.057000000     2.284000000
O    -3.028000000    -2.005000000     3.808000000
C    -3.465000000    -0.788000000     3.274000000
C    -2.752000000     0.307000000     3.736000000
H    -2.025000000     0.157000000     4.529000000
C    -3.009000000     1.507000000     3.126000000
O    -2.201000000     2.618000000     3.406000000
C    -4.014000000     1.593000000     2.166000000
C    -4.396000000     2.882000000     1.576000000
H    -5.452000000     2.804000000     1.312000000
C    -3.539000000     3.307000000     0.361000000
C    -4.003000000     3.000000000    -0.893000000
H    -4.983000000     2.534000000    -0.941000000
H    -4.244000000     3.655000000     2.332000000
C    -4.655000000     0.471000000     1.680000000
H    -5.216000000     0.607000000     0.759000000
C    -4.467000000    -0.773000000     2.318000000
C    -5.129000000    -1.980000000     1.708000000
H    -6.126000000    -1.795000000     1.305000000
H    -5.391000000    -2.691000000     2.494000000
C    -4.334000000    -2.587000000     0.599000000
C    -4.478000000    -2.059000000    -0.706000000
H    -5.205000000    -1.283000000    -0.931000000
C    -3.361000000    -3.560000000     0.900000000
C    -2.405000000    -3.957000000    -0.106000000
H    -1.598000000    -4.640000000     0.143000000
C    -2.537000000    -3.415000000    -1.361000000
O    -1.554000000    -3.710000000    -2.273000000
C    -0.649000000    -2.609000000    -2.628000000
C     0.859000000    -3.085000000    -2.508000000
C     1.814000000    -2.509000000    -3.316000000
H     1.465000000    -1.691000000    -3.941000000
C     1.273000000    -3.951000000    -1.493000000
H     0.520000000    -4.460000000    -0.896000000
O    -0.884000000    -2.136000000    -4.010000000
H    -0.818000000    -1.740000000    -1.974000000
C    -3.608000000    -2.550000000    -1.684000000
C    -3.783000000    -2.103000000    -3.167000000
H    -4.830000000    -1.863000000    -3.362000000
H    -3.447000000    -2.903000000    -3.830000000
C    -3.000000000    -0.909000000    -3.413000000
C    -3.664000000     0.338000000    -3.488000000
H    -4.652000000     0.488000000    -3.060000000
C    -1.681000000    -0.968000000    -4.022000000
C    -1.005000000     0.133000000    -4.385000000
H     0.038000000     0.066000000    -4.686000000
C    -1.660000000     1.320000000    -4.235000000
O    -0.827000000     2.393000000    -4.471000000
C    -0.157000000     2.878000000    -3.290000000
C     1.193000000     3.303000000    -3.574000000
C     1.871000000     2.668000000    -4.616000000
H     1.352000000     2.004000000    -5.302000000
C     1.794000000     4.306000000    -2.837000000
H     1.231000000     4.674000000    -1.982000000
O    -0.994000000     4.008000000    -2.834000000
H    -0.141000000     2.082000000    -2.531000000
C    -3.000000000     1.464000000    -3.805000000
C    -3.556000000     2.799000000    -3.441000000
H    -4.645000000     2.868000000    -3.492000000
H    -3.125000000     3.532000000    -4.125000000
C    -3.157000000     3.245000000    -1.993000000
C    -1.890000000     3.780000000    -1.829000000
C    -1.459000000     4.150000000    -0.616000000
H    -0.518000000     4.670000000    -0.453000000
C    -2.292000000     3.918000000     0.537000000
O    -1.728000000     4.242000000     1.715000000
C    -1.237000000     3.076000000     2.432000000
H    -1.035000000     2.187000000     1.817000000
C     0.132000000     3.270000000     2.923000000
C     0.679000000     2.268000000     3.705000000
H     0.078000000     1.402000000     3.971000000
C     0.970000000     4.320000000     2.490000000
H     0.517000000     5.108000000     1.893000000
C     2.260000000     4.415000000     2.915000000
O     2.958000000     5.545000000     2.507000000
C     2.851000000     3.445000000     3.706000000
H     3.916000000     3.467000000     3.924000000
C     2.021000000     2.378000000     4.165000000
O     2.761000000     1.404000000     4.788000000
C     2.292000000     0.535000000     5.786000000
C     2.078000000    -0.812000000     5.628000000
H     2.173000000    -1.315000000     4.669000000
C     2.125000000     1.121000000     7.058000000
H     2.322000000     2.166000000     7.284000000
C     1.835000000     0.268000000     8.147000000
H     1.964000000     0.713000000     9.130000000
C     1.656000000    -1.104000000     7.965000000
H     1.364000000    -1.788000000     8.758000000
C     1.616000000    -1.642000000     6.661000000
O     1.364000000    -2.980000000     6.493000000
C     0.678000000    -3.517000000     5.428000000
C     1.062000000    -4.784000000     5.007000000
H     2.003000000    -5.202000000     5.356000000
C     0.388000000    -5.445000000     4.015000000
O     0.788000000    -6.650000000     3.515000000
C     1.196000000    -6.871000000     2.153000000
C     2.101000000    -5.948000000     1.594000000
H     2.492000000    -5.126000000     2.188000000
C     0.601000000    -7.784000000     1.336000000
H    -0.134000000    -8.528000000     1.634000000
C     1.017000000    -7.857000000     0.019000000
H     0.574000000    -8.540000000    -0.702000000
C     1.956000000    -7.002000000    -0.514000000
H     2.247000000    -7.125000000    -1.554000000
C     2.475000000    -6.001000000     0.246000000
O     3.150000000    -5.002000000    -0.311000000
C     2.642000000    -4.150000000    -1.265000000
C     3.592000000    -3.678000000    -2.233000000
H     4.627000000    -4.002000000    -2.161000000
C     3.183000000    -2.838000000    -3.276000000
O     4.130000000    -2.229000000    -4.050000000
C     3.939000000    -1.347000000    -5.131000000
C     4.027000000     0.046000000    -4.864000000
H     4.443000000     0.406000000    -3.927000000
C     3.604000000    -1.838000000    -6.349000000
H     3.453000000    -2.898000000    -6.536000000
C     3.630000000    -0.952000000    -7.472000000
H     3.507000000    -1.294000000    -8.496000000
C     3.735000000     0.421000000    -7.216000000
H     3.505000000     1.168000000    -7.972000000
C     3.849000000     0.945000000    -5.910000000
O     3.885000000     2.329000000    -5.773000000
C     3.211000000     2.969000000    -4.771000000
C     3.880000000     3.914000000    -3.969000000
H     4.943000000     4.080000000    -4.122000000
C     3.139000000     4.618000000    -3.018000000
O     3.686000000     5.656000000    -2.284000000
C     3.128000000     6.078000000    -1.127000000
C     2.267000000     7.206000000    -1.211000000
H     2.135000000     7.722000000    -2.158000000
C     1.667000000     7.728000000    -0.094000000
H     0.959000000     8.550000000    -0.172000000
C     2.013000000     7.141000000     1.109000000
H     1.607000000     7.563000000     2.025000000
C     2.749000000     6.002000000     1.224000000
C     3.355000000     5.462000000     0.109000000
H     4.111000000     4.682000000     0.138000000
C     1.722000000    -0.933000000    -0.062000000
H     1.959000000    -1.993000000    -0.018000000
C     0.422000000    -0.442000000    -0.004000000
H    -0.435000000    -1.099000000     0.125000000
C     0.145000000     0.879000000    -0.281000000
H    -0.838000000     1.333000000    -0.311000000
C     1.232000000     1.755000000    -0.534000000
H     1.071000000     2.817000000    -0.706000000
C     2.565000000     1.261000000    -0.582000000
H     3.419000000     1.859000000    -0.889000000
C     2.798000000    -0.111000000    -0.355000000
C     4.174000000    -0.570000000    -0.415000000
O     5.003000000     0.128000000    -0.887000000
O     4.411000000    -1.656000000     0.078000000
O     5.342000000    -0.495000000     4.660000000
H     4.542000000     0.024000000     4.738000000
H     5.142000000    -1.314000000     5.115000000
O     6.918000000    -1.575000000    -2.508000000
H     7.301000000    -1.835000000    -1.671000000
H     5.973000000    -1.601000000    -2.359000000
O     8.055000000     0.252000000     0.124000000
H     7.453000000     0.398000000    -0.605000000
H     7.521000000    -0.175000000     0.794000000
O     4.366000000    -4.046000000     4.107000000
H     4.012000000    -3.372000000     3.527000000
H     4.389000000    -4.838000000     3.569000000
O     3.260000000    -1.820000000     2.544000000
H     3.749000000    -1.960000000     1.734000000
H     2.696000000    -1.069000000     2.357000000
O     6.941000000     0.910000000    -4.455000000
H     7.082000000     0.897000000    -3.509000000
H     6.613000000     0.034000000    -4.660000000
O     8.512000000     2.017000000     2.408000000
H     8.432000000     1.480000000     1.619000000
H     8.678000000     2.901000000     2.080000000
O     6.442000000    -1.359000000     2.268000000
H     5.880000000    -1.032000000     2.971000000
H     5.844000000    -1.514000000     1.537000000
O     5.102000000     2.575000000     0.665000000
H     4.923000000     1.787000000     0.152000000
H     5.514000000     3.176000000     0.044000000
O    10.163000000    -1.052000000    -1.452000000
H     9.815000000    -1.922000000    -1.649000000
H     9.534000000    -0.677000000    -0.836000000
O     6.744000000     1.920000000     4.721000000
H     7.266000000     2.020000000     3.925000000
H     6.229000000     1.127000000     4.573000000
O     8.391000000     3.224000000    -2.699000000
H     8.983000000     3.691000000    -2.109000000
H     8.781000000     2.355000000    -2.791000000
O     8.040000000    -1.876000000    -4.842000000
H     7.606000000    -1.890000000    -3.989000000
H     8.651000000    -2.612000000    -4.812000000
O     6.628000000     4.918000000     2.970000000
H     7.518000000     4.780000000     2.646000000
H     6.088000000     4.327000000     2.446000000
O     9.227000000    -2.901000000     2.624000000
H     8.359000000    -2.666000000     2.953000000
H     9.823000000    -2.680000000     3.340000000
O     6.443000000     4.132000000    -1.237000000
H     6.564000000     4.942000000    -1.733000000
H     6.954000000     3.480000000    -1.716000000
O     5.607000000    -3.893000000     0.151000000
H     4.919000000    -4.559000000     0.143000000
H     5.136000000    -3.060000000     0.139000000
O     9.900000000     0.849000000    -3.200000000
H     9.855000000     0.179000000    -2.517000000
H    10.165000000     0.371000000    -3.986000000
O     8.305000000    -2.713000000    -0.159000000
H     8.397000000    -2.594000000     0.787000000
H     7.665000000    -3.419000000    -0.250000000
