215
-1457.13001
C    -1.915000000    -1.298000000    -4.471000000
H    -1.473000000    -2.289000000    -4.400000000
C    -1.204000000    -0.089000000    -4.406000000
C    -1.890000000     1.086000000    -4.451000000
H    -1.266000000     1.976000000    -4.430000000
C     0.285000000    -0.003000000    -4.236000000
O     0.901000000    -1.215000000    -4.704000000
H     0.482000000    -0.111000000    -3.159000000
O     0.959000000     1.160000000    -4.771000000
C     1.839000000     1.800000000    -3.902000000
C     1.430000000     2.961000000    -3.246000000
H     0.402000000     3.307000000    -3.328000000
C     2.267000000     3.525000000    -2.318000000
O     1.715000000     4.546000000    -1.534000000
C     3.525000000     3.000000000    -1.976000000
C     4.417000000     3.520000000    -0.804000000
H     5.482000000     3.384000000    -0.999000000
C     3.932000000     2.934000000     0.573000000
C     4.542000000     1.778000000     1.036000000
H     5.239000000     1.324000000     0.336000000
H     4.147000000     4.567000000    -0.653000000
C     3.908000000     1.816000000    -2.630000000
H     4.858000000     1.328000000    -2.427000000
C     3.094000000     1.227000000    -3.564000000
C     3.554000000    -0.075000000    -4.287000000
H     4.646000000    -0.066000000    -4.277000000
H     3.135000000     0.020000000    -5.291000000
C     3.051000000    -1.345000000    -3.635000000
C     3.768000000    -1.939000000    -2.583000000
H     4.748000000    -1.519000000    -2.370000000
C     1.841000000    -1.944000000    -3.915000000
C     1.392000000    -3.085000000    -3.227000000
H     0.457000000    -3.560000000    -3.514000000
C     2.144000000    -3.642000000    -2.259000000
O     1.446000000    -4.563000000    -1.485000000
C     0.879000000    -4.116000000    -0.281000000
C    -0.472000000    -4.731000000    -0.019000000
C    -1.068000000    -4.428000000     1.190000000
H    -0.479000000    -3.880000000     1.922000000
C    -1.175000000    -5.350000000    -0.986000000
H    -0.718000000    -5.368000000    -1.973000000
O     1.852000000    -4.497000000     0.811000000
H     0.922000000    -3.019000000    -0.214000000
C     3.368000000    -3.066000000    -1.888000000
C     4.087000000    -3.567000000    -0.670000000
H     5.143000000    -3.519000000    -0.942000000
H     3.989000000    -4.648000000    -0.555000000
C     3.698000000    -2.926000000     0.617000000
C     4.351000000    -1.840000000     1.074000000
H     5.221000000    -1.537000000     0.496000000
C     2.690000000    -3.500000000     1.342000000
C     2.352000000    -2.893000000     2.593000000
H     1.488000000    -3.259000000     3.141000000
C     2.941000000    -1.753000000     3.006000000
O     2.565000000    -1.167000000     4.185000000
C     1.722000000    -0.043000000     4.048000000
C     0.590000000     0.011000000     5.042000000
C     0.044000000    -1.169000000     5.517000000
H     0.554000000    -2.075000000     5.200000000
C    -0.126000000     1.227000000     5.292000000
H     0.220000000     2.131000000     4.798000000
O     2.550000000     1.183000000     4.093000000
H     1.188000000    -0.124000000     3.089000000
C     4.103000000    -1.260000000     2.277000000
C     4.838000000    -0.019000000     2.744000000
H     5.861000000    -0.104000000     2.372000000
H     4.931000000     0.037000000     3.831000000
C     4.153000000     1.159000000     2.226000000
C     3.062000000     1.689000000     2.937000000
C     2.409000000     2.818000000     2.446000000
H     1.488000000     3.186000000     2.890000000
C     2.929000000     3.458000000     1.285000000
O     2.136000000     4.449000000     0.811000000
C     1.180000000     4.236000000    -0.236000000
H     1.047000000     3.147000000    -0.147000000
C    -0.216000000     4.845000000     0.088000000
C    -1.014000000     5.172000000    -1.045000000
H    -0.633000000     5.090000000    -2.060000000
C    -0.667000000     5.162000000     1.365000000
H     0.060000000     4.975000000     2.150000000
C    -1.999000000     5.592000000     1.516000000
O    -2.585000000     5.592000000     2.813000000
C    -2.789000000     5.883000000     0.441000000
H    -3.740000000     6.384000000     0.604000000
C    -2.309000000     5.709000000    -0.878000000
O    -3.059000000     6.038000000    -1.976000000
C    -2.957000000     5.384000000    -3.219000000
C    -3.481000000     4.127000000    -3.433000000
H    -4.084000000     3.603000000    -2.696000000
C    -2.233000000     6.012000000    -4.187000000
H    -1.833000000     6.987000000    -3.919000000
C    -2.246000000     5.426000000    -5.465000000
H    -1.704000000     5.904000000    -6.277000000
C    -2.879000000     4.222000000    -5.733000000
H    -2.960000000     3.773000000    -6.720000000
C    -3.457000000     3.562000000    -4.693000000
O    -3.954000000     2.249000000    -4.934000000
C    -3.221000000     1.141000000    -4.658000000
C    -3.949000000    -0.021000000    -4.831000000
H    -5.011000000    -0.065000000    -5.059000000
C    -3.318000000    -1.261000000    -4.673000000
O    -4.071000000    -2.376000000    -4.603000000
C    -3.722000000    -3.699000000    -4.447000000
C    -3.659000000    -4.349000000    -3.232000000
H    -3.836000000    -3.806000000    -2.307000000
C    -3.628000000    -4.479000000    -5.608000000
H    -3.767000000    -3.980000000    -6.564000000
C    -3.265000000    -5.834000000    -5.526000000
H    -3.023000000    -6.370000000    -6.440000000
C    -3.258000000    -6.429000000    -4.270000000
H    -2.941000000    -7.467000000    -4.205000000
C    -3.430000000    -5.717000000    -3.142000000
O    -3.224000000    -6.313000000    -1.903000000
C    -2.540000000    -5.716000000    -0.847000000
C    -3.184000000    -5.350000000     0.366000000
H    -4.228000000    -5.569000000     0.574000000
C    -2.431000000    -4.713000000     1.373000000
O    -3.043000000    -4.279000000     2.558000000
C    -2.459000000    -4.467000000     3.840000000
C    -2.276000000    -3.387000000     4.687000000
H    -2.629000000    -2.417000000     4.346000000
C    -1.950000000    -5.706000000     4.216000000
H    -2.139000000    -6.590000000     3.611000000
C    -1.224000000    -5.842000000     5.460000000
H    -0.861000000    -6.761000000     5.914000000
C    -1.171000000    -4.761000000     6.318000000
H    -0.733000000    -4.908000000     7.302000000
C    -1.662000000    -3.528000000     5.940000000
O    -1.694000000    -2.403000000     6.732000000
C    -1.134000000    -1.194000000     6.249000000
C    -1.715000000     0.039000000     6.603000000
H    -2.599000000     0.080000000     7.236000000
C    -1.231000000     1.263000000     6.092000000
O    -1.884000000     2.428000000     6.284000000
C    -1.526000000     3.610000000     5.718000000
C    -0.762000000     4.482000000     6.343000000
H    -0.302000000     4.130000000     7.263000000
C    -0.452000000     5.678000000     5.777000000
H     0.322000000     6.290000000     6.232000000
C    -1.091000000     6.067000000     4.637000000
H    -0.891000000     7.074000000     4.281000000
C    -1.959000000     5.216000000     3.985000000
C    -2.143000000     3.972000000     4.537000000
H    -2.785000000     3.256000000     4.030000000
C    -1.680000000    -0.863000000     0.167000000
H    -1.982000000    -1.764000000     0.695000000
C    -0.366000000    -0.437000000     0.238000000
H     0.354000000    -1.100000000     0.712000000
C     0.048000000     0.721000000    -0.409000000
H     1.110000000     0.932000000    -0.503000000
C    -0.891000000     1.533000000    -1.078000000
H    -0.594000000     2.495000000    -1.489000000
C    -2.237000000     1.104000000    -1.134000000
H    -3.031000000     1.702000000    -1.574000000
C    -2.639000000    -0.108000000    -0.513000000
C    -4.001000000    -0.690000000    -0.666000000
O    -4.800000000    -0.186000000    -1.402000000
O    -4.390000000    -1.798000000    -0.214000000
O    -8.764000000    -4.000000000    -2.940000000
H    -8.045000000    -3.426000000    -2.678000000
H    -9.366000000    -3.987000000    -2.195000000
O    -6.092000000    -3.729000000    -1.216000000
H    -5.404000000    -3.223000000    -0.784000000
H    -6.222000000    -3.289000000    -2.056000000
O    -6.134000000     1.610000000    -2.817000000
H    -5.605000000     0.877000000    -2.500000000
H    -5.910000000     1.683000000    -3.745000000
O    -6.745000000    -4.356000000    -4.862000000
H    -7.507000000    -4.497000000    -4.300000000
H    -6.514000000    -3.437000000    -4.726000000
O    -6.647000000     0.847000000     0.490000000
H    -6.142000000     0.556000000    -0.269000000
H    -6.077000000     1.478000000     0.930000000
O    -8.270000000    -1.813000000    -4.869000000
H    -7.804000000    -1.337000000    -5.557000000
H    -8.086000000    -1.320000000    -4.070000000
O    -7.987000000    -4.886000000     0.944000000
H    -8.825000000    -4.459000000     0.769000000
H    -7.434000000    -4.641000000     0.202000000
O    -4.592000000    -0.481000000     3.778000000
H    -3.988000000     0.145000000     3.378000000
H    -4.698000000    -1.167000000     3.119000000
O    -5.220000000    -2.490000000     2.118000000
H    -5.223000000    -2.176000000     1.214000000
H    -4.411000000    -2.997000000     2.194000000
O    -6.783000000    -2.394000000     4.845000000
H    -6.127000000    -1.701000000     4.783000000
H    -6.403000000    -3.128000000     4.362000000
O    -8.640000000     1.954000000    -2.155000000
H    -7.694000000     1.831000000    -2.243000000
H    -9.022000000     1.262000000    -2.695000000
O    -5.093000000     3.086000000     1.760000000
H    -4.742000000     3.769000000     2.331000000
H    -5.174000000     3.508000000     0.904000000
O    -6.446000000    -1.461000000    -2.863000000
H    -5.839000000    -1.539000000    -3.599000000
H    -5.912000000    -1.111000000    -2.149000000
O    -9.004000000    -0.755000000    -2.075000000
H    -8.091000000    -0.799000000    -2.362000000
H    -9.020000000    -1.245000000    -1.253000000
O    -7.795000000     0.605000000     3.359000000
H    -7.174000000     0.601000000     4.088000000
H    -7.252000000     0.485000000     2.580000000
O    -7.613000000    -1.581000000     0.484000000
H    -7.822000000    -1.623000000     1.417000000
H    -7.122000000    -0.765000000     0.385000000
O    -3.000000000     1.383000000     2.414000000
H    -3.755000000     1.969000000     2.369000000
H    -2.528000000     1.538000000     1.595000000
O    -6.219000000     3.690000000    -0.704000000
H    -7.164000000     3.697000000    -0.552000000
H    -6.101000000     3.111000000    -1.458000000
O   -10.359000000     0.225000000     1.074000000
H    -9.532000000     0.235000000     0.592000000
H   -10.480000000     1.131000000     1.360000000
