215
-1456.33229
C     0.511000000    -2.389000000     3.605000000
H    -0.154000000    -2.999000000     2.998000000
C     0.189000000    -1.138000000     4.185000000
C     1.107000000    -0.321000000     4.806000000
H     0.924000000     0.714000000     5.082000000
C    -1.224000000    -0.695000000     3.935000000
O    -2.211000000    -1.712000000     4.065000000
H    -1.217000000    -0.439000000     2.865000000
O    -1.464000000     0.513000000     4.660000000
C    -1.907000000     1.563000000     3.915000000
C    -1.009000000     2.563000000     3.528000000
H    -0.035000000     2.625000000     4.006000000
C    -1.401000000     3.556000000     2.660000000
O    -0.524000000     4.543000000     2.262000000
C    -2.677000000     3.566000000     2.042000000
C    -2.990000000     4.440000000     0.896000000
H    -4.079000000     4.483000000     0.824000000
C    -2.444000000     4.030000000    -0.440000000
C    -3.297000000     3.417000000    -1.353000000
H    -4.299000000     3.107000000    -1.070000000
H    -2.698000000     5.461000000     1.151000000
C    -3.568000000     2.519000000     2.398000000
H    -4.565000000     2.463000000     1.970000000
C    -3.104000000     1.540000000     3.237000000
C    -4.064000000     0.468000000     3.590000000
H    -5.060000000     0.916000000     3.584000000
H    -3.854000000     0.164000000     4.618000000
C    -3.882000000    -0.720000000     2.659000000
C    -4.600000000    -0.750000000     1.440000000
H    -5.309000000     0.038000000     1.199000000
C    -3.051000000    -1.803000000     2.939000000
C    -3.121000000    -2.971000000     2.133000000
H    -2.489000000    -3.843000000     2.284000000
C    -3.860000000    -2.966000000     0.983000000
O    -3.460000000    -3.926000000     0.061000000
C    -2.558000000    -3.685000000    -1.002000000
C    -1.515000000    -4.779000000    -1.176000000
C    -0.855000000    -4.862000000    -2.415000000
H    -1.084000000    -4.137000000    -3.192000000
C    -1.210000000    -5.645000000    -0.157000000
H    -1.742000000    -5.573000000     0.788000000
O    -3.321000000    -3.440000000    -2.249000000
H    -1.960000000    -2.804000000    -0.724000000
C    -4.552000000    -1.854000000     0.557000000
C    -5.275000000    -1.790000000    -0.789000000
H    -6.136000000    -1.121000000    -0.723000000
H    -5.718000000    -2.762000000    -1.017000000
C    -4.326000000    -1.222000000    -1.856000000
C    -4.430000000     0.165000000    -2.184000000
H    -5.177000000     0.796000000    -1.710000000
C    -3.488000000    -2.090000000    -2.544000000
C    -2.593000000    -1.547000000    -3.473000000
H    -1.920000000    -2.215000000    -4.006000000
C    -2.505000000    -0.118000000    -3.616000000
O    -1.460000000     0.343000000    -4.374000000
C    -0.485000000     1.165000000    -3.740000000
C     0.904000000     0.837000000    -4.210000000
C     1.118000000    -0.431000000    -4.811000000
H     0.282000000    -1.122000000    -4.886000000
C     1.938000000     1.748000000    -4.106000000
H     1.714000000     2.694000000    -3.621000000
O    -0.888000000     2.539000000    -3.991000000
H    -0.588000000     0.915000000    -2.673000000
C    -3.548000000     0.671000000    -3.113000000
C    -3.694000000     2.146000000    -3.509000000
H    -4.731000000     2.471000000    -3.403000000
H    -3.499000000     2.213000000    -4.582000000
C    -2.789000000     3.010000000    -2.605000000
C    -1.441000000     3.108000000    -2.881000000
C    -0.625000000     3.787000000    -1.960000000
H     0.446000000     3.951000000    -2.051000000
C    -1.101000000     4.308000000    -0.800000000
O    -0.222000000     4.994000000     0.003000000
C     0.385000000     4.278000000     1.142000000
H     0.428000000     3.205000000     0.903000000
C     1.827000000     4.592000000     1.380000000
C     2.432000000     4.423000000     2.625000000
H     1.814000000     4.128000000     3.469000000
C     2.639000000     4.946000000     0.291000000
H     2.221000000     4.948000000    -0.713000000
C     4.017000000     5.182000000     0.502000000
O     4.876000000     5.343000000    -0.578000000
C     4.527000000     5.145000000     1.791000000
H     5.569000000     5.379000000     1.991000000
C     3.781000000     4.744000000     2.864000000
O     4.296000000     4.571000000     4.118000000
C     3.716000000     3.690000000     4.975000000
C     3.811000000     2.325000000     4.617000000
H     4.352000000     1.993000000     3.735000000
C     3.177000000     4.072000000     6.218000000
H     3.242000000     5.151000000     6.339000000
C     2.673000000     3.137000000     7.167000000
H     2.242000000     3.418000000     8.125000000
C     2.733000000     1.776000000     6.834000000
H     2.311000000     0.985000000     7.448000000
C     3.248000000     1.385000000     5.536000000
O     3.378000000     0.038000000     5.251000000
C     2.400000000    -0.751000000     4.737000000
C     2.815000000    -1.993000000     4.244000000
H     3.869000000    -2.256000000     4.222000000
C     1.842000000    -2.831000000     3.745000000
O     2.355000000    -4.001000000     3.249000000
C     1.472000000    -5.126000000     3.156000000
C     1.200000000    -5.709000000     1.949000000
H     1.567000000    -5.158000000     1.086000000
C     1.059000000    -5.805000000     4.315000000
H     1.243000000    -5.298000000     5.258000000
C     0.281000000    -6.944000000     4.208000000
H    -0.093000000    -7.334000000     5.151000000
C     0.019000000    -7.506000000     2.970000000
H    -0.499000000    -8.452000000     2.834000000
C     0.407000000    -6.872000000     1.808000000
O     0.090000000    -7.386000000     0.572000000
C    -0.261000000    -6.589000000    -0.426000000
C     0.474000000    -6.635000000    -1.593000000
H     1.221000000    -7.419000000    -1.688000000
C     0.135000000    -5.828000000    -2.664000000
O     0.825000000    -6.003000000    -3.899000000
C     0.789000000    -4.969000000    -4.812000000
C     1.788000000    -4.025000000    -4.900000000
H     2.442000000    -3.936000000    -4.036000000
C    -0.181000000    -5.077000000    -5.821000000
H    -0.868000000    -5.909000000    -5.947000000
C    -0.215000000    -4.151000000    -6.859000000
H    -0.942000000    -4.212000000    -7.664000000
C     0.791000000    -3.230000000    -6.925000000
H     0.840000000    -2.510000000    -7.737000000
C     1.771000000    -3.085000000    -5.886000000
O     2.681000000    -2.018000000    -5.716000000
C     2.394000000    -0.756000000    -5.234000000
C     3.476000000     0.135000000    -5.087000000
H     4.460000000    -0.257000000    -5.331000000
C     3.236000000     1.403000000    -4.503000000
O     4.316000000     2.308000000    -4.232000000
C     4.163000000     3.583000000    -3.725000000
C     3.755000000     4.647000000    -4.541000000
H     3.479000000     4.558000000    -5.588000000
C     3.672000000     5.940000000    -3.961000000
H     3.367000000     6.754000000    -4.615000000
C     4.154000000     6.149000000    -2.670000000
H     4.251000000     7.130000000    -2.212000000
C     4.579000000     5.090000000    -1.896000000
C     4.564000000     3.794000000    -2.447000000
H     4.991000000     2.966000000    -1.887000000
C     2.085000000    -1.153000000    -0.789000000
H     2.395000000    -1.747000000    -1.645000000
C     0.756000000    -0.836000000    -0.712000000
H    -0.002000000    -0.959000000    -1.481000000
C     0.289000000    -0.189000000     0.407000000
H    -0.804000000    -0.058000000     0.581000000
C     1.168000000     0.323000000     1.366000000
H     0.959000000     0.928000000     2.245000000
C     2.523000000     0.050000000     1.243000000
H     3.240000000     0.417000000     1.974000000
C     2.991000000    -0.667000000     0.147000000
C     4.442000000    -0.888000000    -0.159000000
O     5.186000000    -0.874000000     0.848000000
O     4.807000000    -1.428000000    -1.223000000
O     3.976000000    -6.142000000    -1.086000000
H     3.870000000    -5.769000000    -0.210000000
H     4.446000000    -5.468000000    -1.577000000
O     8.431000000    -3.602000000    -3.397000000
H     8.938000000    -2.849000000    -3.699000000
H     9.051000000    -4.331000000    -3.415000000
O     4.805000000    -5.445000000    -4.991000000
H     4.814000000    -4.794000000    -4.290000000
H     5.714000000    -5.740000000    -5.056000000
O     4.964000000    -3.211000000    -3.261000000
H     5.673000000    -2.758000000    -3.717000000
H     4.857000000    -2.727000000    -2.442000000
O     8.041000000    -4.350000000     2.015000000
H     8.278000000    -5.268000000     1.886000000
H     7.228000000    -4.241000000     1.521000000
O     4.850000000    -4.956000000     3.016000000
H     5.200000000    -4.450000000     2.283000000
H     3.927000000    -4.707000000     3.060000000
O    10.230000000     0.320000000    -2.645000000
H     9.614000000     0.396000000    -1.916000000
H    11.092000000     0.419000000    -2.241000000
O     5.899000000    -4.215000000     0.391000000
H     5.523000000    -3.399000000     0.062000000
H     6.346000000    -4.594000000    -0.366000000
O     7.924000000    -0.641000000    -0.050000000
H     7.024000000    -0.633000000     0.276000000
H     7.841000000    -0.467000000    -0.987000000
O     7.163000000    -1.775000000     2.884000000
H     7.800000000    -2.368000000     2.487000000
H     6.649000000    -1.448000000     2.146000000
O     7.222000000     0.465000000     4.556000000
H     7.278000000    -0.201000000     3.871000000
H     7.295000000     1.297000000     4.087000000
O     7.772000000     2.262000000    -1.513000000
H     6.944000000     2.003000000    -1.110000000
H     7.665000000     2.048000000    -2.440000000
O     8.168000000     1.605000000    -4.135000000
H     8.977000000     2.062000000    -3.905000000
H     8.310000000     0.704000000    -3.842000000
O     8.997000000     1.701000000     1.093000000
H     8.689000000     0.816000000     0.899000000
H     8.499000000     2.264000000     0.500000000
O     6.195000000    -2.072000000    -5.478000000
H     5.530000000    -1.483000000    -5.835000000
H     6.378000000    -2.686000000    -6.189000000
O     9.913000000    -2.359000000    -1.162000000
H     9.332000000    -2.724000000    -1.830000000
H     9.331000000    -1.869000000    -0.581000000
O     5.903000000     1.650000000     0.929000000
H     5.573000000     0.762000000     1.069000000
H     5.938000000     2.033000000     1.805000000
O     6.824000000    -0.460000000    -2.597000000
H     6.026000000    -0.763000000    -2.163000000
H     7.022000000    -1.143000000    -3.238000000
O     7.413000000    -5.179000000    -1.494000000
H     7.849000000    -5.997000000    -1.732000000
H     7.558000000    -4.603000000    -2.245000000
