215
-1451.62966
C     0.601000000    -3.250000000     3.616000000
H     0.074000000    -3.927000000     2.948000000
C     0.030000000    -2.046000000     4.057000000
C     0.822000000    -1.131000000     4.802000000
H     0.429000000    -0.201000000     5.204000000
C    -1.384000000    -1.635000000     3.513000000
O    -2.411000000    -2.713000000     3.386000000
H    -1.194000000    -1.262000000     2.496000000
O    -1.803000000    -0.540000000     4.271000000
C    -2.322000000     0.540000000     3.670000000
C    -1.503000000     1.670000000     3.593000000
H    -0.573000000     1.604000000     4.152000000
C    -1.950000000     2.712000000     2.829000000
O    -1.067000000     3.747000000     2.697000000
C    -3.224000000     2.724000000     2.186000000
C    -3.672000000     3.955000000     1.319000000
H    -4.764000000     3.984000000     1.333000000
C    -3.043000000     3.943000000    -0.012000000
C    -3.748000000     3.385000000    -1.070000000
H    -4.800000000     3.123000000    -1.000000000
H    -3.481000000     4.906000000     1.821000000
C    -4.079000000     1.677000000     2.390000000
H    -4.978000000     1.582000000     1.787000000
C    -3.561000000     0.640000000     3.073000000
C    -4.447000000    -0.630000000     3.064000000
H    -5.461000000    -0.259000000     2.900000000
H    -4.433000000    -1.161000000     4.018000000
C    -4.053000000    -1.600000000     2.011000000
C    -4.611000000    -1.518000000     0.712000000
H    -5.368000000    -0.761000000     0.523000000
C    -3.188000000    -2.666000000     2.274000000
C    -2.835000000    -3.639000000     1.333000000
H    -2.080000000    -4.363000000     1.627000000
C    -3.313000000    -3.456000000     0.040000000
O    -2.789000000    -4.269000000    -0.885000000
C    -1.837000000    -3.756000000    -1.879000000
C    -0.527000000    -4.545000000    -1.981000000
C     0.436000000    -4.103000000    -2.857000000
H     0.169000000    -3.269000000    -3.501000000
C    -0.300000000    -5.704000000    -1.237000000
H    -1.047000000    -6.136000000    -0.576000000
O    -2.453000000    -3.245000000    -3.055000000
H    -1.540000000    -2.903000000    -1.251000000
C    -4.293000000    -2.515000000    -0.291000000
C    -4.909000000    -2.397000000    -1.662000000
H    -5.942000000    -2.043000000    -1.671000000
H    -4.974000000    -3.384000000    -2.123000000
C    -4.038000000    -1.479000000    -2.519000000
C    -4.400000000    -0.125000000    -2.595000000
H    -5.322000000     0.242000000    -2.152000000
C    -2.858000000    -1.946000000    -3.078000000
C    -2.099000000    -1.099000000    -3.832000000
H    -1.105000000    -1.413000000    -4.142000000
C    -2.412000000     0.260000000    -3.949000000
O    -1.471000000     1.022000000    -4.628000000
C    -0.610000000     1.768000000    -3.624000000
C     0.921000000     1.786000000    -3.954000000
C     1.413000000     0.714000000    -4.682000000
H     0.670000000     0.035000000    -5.092000000
C     1.772000000     2.763000000    -3.528000000
H     1.372000000     3.500000000    -2.836000000
O    -1.142000000     3.088000000    -3.597000000
H    -0.748000000     1.334000000    -2.623000000
C    -3.531000000     0.744000000    -3.278000000
C    -3.954000000     2.178000000    -3.328000000
H    -5.041000000     2.248000000    -3.250000000
H    -3.653000000     2.613000000    -4.283000000
C    -3.141000000     3.008000000    -2.253000000
C    -1.787000000     3.418000000    -2.461000000
C    -1.089000000     4.066000000    -1.463000000
H    -0.046000000     4.312000000    -1.644000000
C    -1.746000000     4.388000000    -0.248000000
O    -0.882000000     4.853000000     0.777000000
C    -0.163000000     3.941000000     1.573000000
H    -0.046000000     2.986000000     1.039000000
C     1.234000000     4.447000000     2.010000000
C     1.714000000     4.143000000     3.291000000
H     1.095000000     3.508000000     3.920000000
C     2.051000000     5.150000000     1.089000000
H     1.688000000     5.370000000     0.088000000
C     3.382000000     5.461000000     1.389000000
O     4.253000000     6.110000000     0.518000000
C     3.839000000     5.138000000     2.710000000
H     4.858000000     5.329000000     3.038000000
C     3.047000000     4.400000000     3.607000000
O     3.615000000     3.851000000     4.798000000
C     2.991000000     2.902000000     5.630000000
C     3.343000000     1.596000000     5.506000000
H     4.121000000     1.305000000     4.805000000
C     1.995000000     3.294000000     6.536000000
H     1.774000000     4.352000000     6.652000000
C     1.334000000     2.310000000     7.290000000
H     0.553000000     2.555000000     8.005000000
C     1.702000000     0.967000000     7.148000000
H     1.145000000     0.197000000     7.676000000
C     2.639000000     0.611000000     6.175000000
O     2.924000000    -0.732000000     6.084000000
C     2.066000000    -1.532000000     5.243000000
C     2.571000000    -2.763000000     4.795000000
H     3.595000000    -2.989000000     5.081000000
C     1.871000000    -3.612000000     4.020000000
O     2.475000000    -4.767000000     3.573000000
C     1.668000000    -5.807000000     2.960000000
C     1.951000000    -6.115000000     1.633000000
H     2.780000000    -5.696000000     1.068000000
C     0.580000000    -6.359000000     3.548000000
H     0.365000000    -6.148000000     4.592000000
C    -0.239000000    -7.265000000     2.958000000
H    -0.985000000    -7.778000000     3.559000000
C    -0.023000000    -7.542000000     1.626000000
H    -0.712000000    -8.140000000     1.035000000
C     1.084000000    -6.962000000     0.949000000
O     1.294000000    -7.268000000    -0.372000000
C     0.968000000    -6.322000000    -1.306000000
C     1.900000000    -5.887000000    -2.246000000
H     2.881000000    -6.351000000    -2.308000000
C     1.637000000    -4.783000000    -2.992000000
O     2.593000000    -4.375000000    -3.861000000
C     2.377000000    -3.650000000    -4.924000000
C     2.763000000    -2.339000000    -4.856000000
H     3.228000000    -1.907000000    -3.974000000
C     1.809000000    -4.263000000    -6.083000000
H     1.611000000    -5.331000000    -6.123000000
C     1.746000000    -3.467000000    -7.196000000
H     1.453000000    -3.952000000    -8.123000000
C     2.196000000    -2.165000000    -7.227000000
H     2.278000000    -1.595000000    -8.149000000
C     2.626000000    -1.576000000    -6.013000000
O     3.089000000    -0.234000000    -6.029000000
C     2.694000000     0.693000000    -5.118000000
C     3.572000000     1.722000000    -4.799000000
H     4.553000000     1.738000000    -5.267000000
C     3.131000000     2.658000000    -3.886000000
O     4.055000000     3.547000000    -3.420000000
C     3.856000000     4.746000000    -2.805000000
C     3.696000000     5.846000000    -3.567000000
H     3.537000000     5.926000000    -4.639000000
C     3.570000000     7.109000000    -2.962000000
H     3.291000000     8.015000000    -3.493000000
C     3.839000000     7.249000000    -1.563000000
H     3.669000000     8.177000000    -1.022000000
C     4.097000000     6.099000000    -0.862000000
C     4.014000000     4.817000000    -1.444000000
H     4.235000000     3.895000000    -0.912000000
C     1.867000000    -2.654000000     0.005000000
H     2.055000000    -3.677000000     0.323000000
C     0.532000000    -2.140000000     0.136000000
H    -0.234000000    -2.727000000     0.636000000
C     0.205000000    -0.930000000    -0.486000000
H    -0.808000000    -0.502000000    -0.457000000
C     1.209000000    -0.186000000    -1.118000000
H     1.017000000     0.796000000    -1.543000000
C     2.542000000    -0.715000000    -1.180000000
H     3.273000000    -0.162000000    -1.763000000
C     2.873000000    -1.992000000    -0.679000000
C     4.134000000    -2.728000000    -0.936000000
O     5.021000000    -2.225000000    -1.569000000
O     4.303000000    -3.879000000    -0.593000000
O     6.238000000    -1.248000000    -6.432000000
H     5.592000000    -0.586000000    -6.681000000
H     6.246000000    -1.228000000    -5.475000000
O     8.302000000     0.472000000     1.001000000
H     7.663000000     0.206000000     0.340000000
H     8.000000000     0.055000000     1.808000000
O     7.648000000    -2.373000000     1.999000000
H     7.008000000    -3.026000000     2.280000000
H     7.584000000    -2.369000000     1.044000000
O    10.020000000    -3.837000000    -1.234000000
H     9.906000000    -3.716000000    -2.177000000
H     9.366000000    -3.261000000    -0.837000000
O     6.941000000    -3.900000000     4.687000000
H     7.601000000    -4.592000000     4.730000000
H     6.395000000    -4.137000000     3.937000000
O     5.768000000    -0.670000000    -3.856000000
H     5.393000000    -1.266000000    -3.208000000
H     6.451000000    -0.197000000    -3.380000000
O     5.997000000    -7.284000000     2.338000000
H     6.621000000    -7.900000000     2.723000000
H     6.031000000    -7.465000000     1.398000000
O     5.666000000    -4.636000000     1.677000000
H     4.980000000    -4.309000000     1.094000000
H     5.406000000    -5.536000000     1.871000000
O     5.557000000    -3.700000000    -3.695000000
H     5.795000000    -3.266000000    -2.875000000
H     4.601000000    -3.725000000    -3.684000000
O     5.337000000    -6.339000000    -1.195000000
H     6.165000000    -6.284000000    -0.718000000
H     4.901000000    -5.506000000    -1.013000000
O     7.358000000    -2.877000000    -0.627000000
H     6.611000000    -2.517000000    -1.105000000
H     7.111000000    -3.783000000    -0.442000000
O     2.836000000    -0.151000000     1.976000000
H     2.868000000    -1.089000000     1.789000000
H     2.118000000     0.177000000     1.434000000
O     4.201000000     1.860000000     0.670000000
H     3.782000000     1.276000000     1.303000000
H     4.859000000     1.313000000     0.240000000
O     7.645000000    -3.446000000    -5.367000000
H     7.301000000    -2.836000000    -6.019000000
H     6.911000000    -3.602000000    -4.773000000
O     8.255000000     0.002000000    -2.564000000
H     8.439000000     0.357000000    -3.433000000
H     9.112000000    -0.057000000    -2.143000000
O     4.941000000    -6.456000000    -4.187000000
H     4.981000000    -6.254000000    -3.252000000
H     5.265000000    -5.664000000    -4.617000000
O     6.221000000     0.292000000    -0.667000000
H     5.695000000    -0.478000000    -0.887000000
H     6.969000000     0.249000000    -1.263000000
O     4.931000000    -9.145000000    -1.245000000
H     4.926000000    -8.192000000    -1.150000000
H     5.823000000    -9.403000000    -1.015000000
O     7.711000000    -6.041000000    -0.342000000
H     8.369000000    -6.411000000    -0.929000000
H     8.091000000    -6.133000000     0.532000000
