215
-1458.60785
C     1.660000000    -2.229000000     4.548000000
H     1.014000000    -3.092000000     4.409000000
C     1.133000000    -0.960000000     4.410000000
C     2.079000000     0.070000000     4.442000000
H     1.704000000     1.079000000     4.290000000
C    -0.330000000    -0.663000000     4.022000000
O    -1.161000000    -1.840000000     4.243000000
H    -0.502000000    -0.326000000     2.990000000
O    -0.783000000     0.399000000     4.852000000
C    -1.597000000     1.312000000     4.278000000
C    -0.891000000     2.480000000     3.797000000
H     0.121000000     2.705000000     4.123000000
C    -1.649000000     3.359000000     2.984000000
O    -0.865000000     4.339000000     2.334000000
C    -2.891000000     2.979000000     2.481000000
C    -3.638000000     3.870000000     1.488000000
H    -4.713000000     3.684000000     1.547000000
C    -3.331000000     3.479000000     0.068000000
C    -4.181000000     2.599000000    -0.617000000
H    -5.040000000     2.190000000    -0.090000000
H    -3.470000000     4.930000000     1.692000000
C    -3.481000000     1.852000000     2.888000000
H    -4.466000000     1.567000000     2.526000000
C    -2.877000000     0.991000000     3.809000000
C    -3.592000000    -0.290000000     4.061000000
H    -4.679000000    -0.193000000     4.104000000
H    -3.286000000    -0.595000000     5.064000000
C    -3.196000000    -1.464000000     3.137000000
C    -4.009000000    -1.752000000     2.076000000
H    -4.941000000    -1.215000000     1.920000000
C    -2.026000000    -2.196000000     3.293000000
C    -1.733000000    -3.283000000     2.447000000
H    -0.864000000    -3.874000000     2.723000000
C    -2.558000000    -3.561000000     1.366000000
O    -2.188000000    -4.571000000     0.545000000
C    -1.565000000    -3.987000000    -0.628000000
C    -0.445000000    -4.919000000    -0.927000000
C     0.091000000    -4.906000000    -2.200000000
H    -0.264000000    -4.355000000    -3.066000000
C     0.257000000    -5.582000000     0.117000000
H    -0.094000000    -5.559000000     1.146000000
O    -2.500000000    -3.824000000    -1.735000000
H    -1.139000000    -2.997000000    -0.409000000
C    -3.710000000    -2.749000000     1.185000000
C    -4.630000000    -2.996000000    -0.010000000
H    -5.678000000    -2.808000000     0.229000000
H    -4.617000000    -4.030000000    -0.362000000
C    -4.168000000    -2.187000000    -1.153000000
C    -4.801000000    -0.966000000    -1.366000000
H    -5.564000000    -0.553000000    -0.710000000
C    -3.195000000    -2.634000000    -2.022000000
C    -2.739000000    -1.896000000    -3.075000000
H    -1.944000000    -2.198000000    -3.752000000
C    -3.302000000    -0.636000000    -3.245000000
O    -2.738000000     0.159000000    -4.192000000
C    -1.703000000     1.016000000    -3.696000000
C    -0.485000000     0.923000000    -4.622000000
C     0.030000000    -0.357000000    -4.944000000
H    -0.543000000    -1.234000000    -4.654000000
C     0.205000000     2.048000000    -4.953000000
H    -0.153000000     3.033000000    -4.664000000
O    -2.260000000     2.305000000    -3.725000000
H    -1.316000000     0.777000000    -2.695000000
C    -4.287000000    -0.146000000    -2.363000000
C    -4.952000000     1.292000000    -2.554000000
H    -5.905000000     1.359000000    -2.025000000
H    -5.134000000     1.652000000    -3.569000000
C    -3.902000000     2.271000000    -1.962000000
C    -2.715000000     2.754000000    -2.512000000
C    -1.891000000     3.606000000    -1.811000000
H    -0.973000000     4.010000000    -2.232000000
C    -2.225000000     4.032000000    -0.574000000
O    -1.318000000     4.900000000     0.091000000
C    -0.396000000     4.210000000     0.952000000
H    -0.441000000     3.140000000     0.700000000
C     1.024000000     4.698000000     0.808000000
C     1.817000000     4.939000000     1.923000000
H     1.469000000     4.543000000     2.874000000
C     1.652000000     4.776000000    -0.448000000
H     1.042000000     4.560000000    -1.322000000
C     2.956000000     5.151000000    -0.635000000
O     3.511000000     5.367000000    -1.880000000
C     3.790000000     5.323000000     0.508000000
H     4.846000000     5.529000000     0.355000000
C     3.181000000     5.248000000     1.786000000
O     3.939000000     5.338000000     2.878000000
C     3.891000000     4.455000000     3.959000000
C     4.206000000     3.118000000     3.787000000
H     4.604000000     2.745000000     2.847000000
C     3.435000000     4.944000000     5.183000000
H     3.184000000     5.981000000     5.387000000
C     3.221000000     4.028000000     6.242000000
H     2.812000000     4.390000000     7.182000000
C     3.489000000     2.660000000     6.054000000
H     3.433000000     1.939000000     6.866000000
C     3.893000000     2.200000000     4.783000000
O     4.333000000     0.928000000     4.567000000
C     3.469000000    -0.084000000     4.551000000
C     3.947000000    -1.396000000     4.641000000
H     5.021000000    -1.558000000     4.680000000
C     3.021000000    -2.450000000     4.563000000
O     3.483000000    -3.752000000     4.581000000
C     2.784000000    -4.830000000     4.056000000
C     2.985000000    -5.209000000     2.716000000
H     3.731000000    -4.685000000     2.122000000
C     2.029000000    -5.621000000     4.912000000
H     1.966000000    -5.358000000     5.965000000
C     1.381000000    -6.709000000     4.344000000
H     0.780000000    -7.379000000     4.953000000
C     1.420000000    -7.019000000     3.006000000
H     0.837000000    -7.845000000     2.606000000
C     2.158000000    -6.259000000     2.162000000
O     2.359000000    -6.636000000     0.868000000
C     1.511000000    -6.082000000    -0.100000000
C     2.039000000    -6.166000000    -1.377000000
H     3.042000000    -6.510000000    -1.616000000
C     1.312000000    -5.585000000    -2.449000000
O     1.969000000    -5.577000000    -3.677000000
C     1.475000000    -4.830000000    -4.723000000
C     1.873000000    -3.501000000    -4.865000000
H     2.639000000    -3.134000000    -4.187000000
C     0.560000000    -5.378000000    -5.696000000
H     0.240000000    -6.417000000    -5.678000000
C     0.050000000    -4.526000000    -6.673000000
H    -0.666000000    -4.962000000    -7.365000000
C     0.490000000    -3.216000000    -6.787000000
H     0.210000000    -2.612000000    -7.646000000
C     1.425000000    -2.682000000    -5.853000000
O     1.949000000    -1.494000000    -6.068000000
C     1.315000000    -0.358000000    -5.569000000
C     2.062000000     0.799000000    -5.779000000
H     3.098000000     0.723000000    -6.098000000
C     1.415000000     1.976000000    -5.597000000
O     2.084000000     3.113000000    -5.996000000
C     2.204000000     4.283000000    -5.168000000
C     1.874000000     5.534000000    -5.724000000
H     1.612000000     5.668000000    -6.771000000
C     2.062000000     6.707000000    -4.910000000
H     1.854000000     7.716000000    -5.254000000
C     2.433000000     6.519000000    -3.576000000
H     2.475000000     7.440000000    -3.001000000
C     2.866000000     5.349000000    -3.046000000
C     2.717000000     4.171000000    -3.838000000
H     3.029000000     3.173000000    -3.540000000
C     1.197000000    -0.575000000    -1.674000000
H     0.984000000    -1.396000000    -2.354000000
C     0.201000000    -0.345000000    -0.698000000
H    -0.691000000    -0.967000000    -0.688000000
C     0.454000000     0.655000000     0.235000000
H    -0.076000000     0.794000000     1.138000000
C     1.594000000     1.420000000     0.152000000
H     1.888000000     2.039000000     0.996000000
C     2.520000000     1.301000000    -0.897000000
H     3.441000000     1.873000000    -0.977000000
C     2.304000000     0.284000000    -1.828000000
C     3.384000000     0.055000000    -2.830000000
O     4.237000000     0.923000000    -3.022000000
O     3.683000000    -1.063000000    -3.134000000
O     5.847000000    -0.010000000    -8.627000000
H     5.356000000    -0.826000000    -8.718000000
H     6.569000000    -0.229000000    -8.037000000
O     4.514000000    -2.600000000    -7.892000000
H     4.558000000    -2.667000000    -6.938000000
H     3.649000000    -2.943000000    -8.117000000
O     8.591000000    -2.110000000    -3.464000000
H     8.253000000    -1.232000000    -3.287000000
H     8.292000000    -2.307000000    -4.351000000
O     6.983000000    -3.658000000    -5.254000000
H     6.181000000    -3.163000000    -5.091000000
H     6.712000000    -4.371000000    -5.832000000
O     5.014000000    -1.800000000    -5.174000000
H     5.539000000    -1.000000000    -5.136000000
H     4.327000000    -1.667000000    -4.521000000
O     7.194000000    -2.518000000     0.728000000
H     7.701000000    -3.197000000     0.282000000
H     6.535000000    -2.252000000     0.088000000
O     5.703000000    -5.349000000     0.402000000
H     6.065000000    -6.208000000     0.186000000
H     5.439000000    -4.982000000    -0.442000000
O     5.657000000    -2.812000000    -2.046000000
H     5.368000000    -2.346000000    -2.830000000
H     5.557000000    -3.738000000    -2.268000000
O     6.214000000     2.594000000    -7.824000000
H     6.157000000     1.732000000    -8.236000000
H     6.067000000     2.425000000    -6.894000000
O     6.035000000     1.092000000    -0.953000000
H     5.377000000     1.281000000    -1.622000000
H     5.616000000     0.448000000    -0.381000000
O     4.660000000    -0.987000000     0.667000000
H     4.044000000    -1.246000000    -0.018000000
H     4.497000000    -1.603000000     1.381000000
O     6.472000000     0.678000000     2.370000000
H     5.978000000     0.101000000     1.787000000
H     6.274000000     0.356000000     3.250000000
O     6.566000000     4.573000000    -3.255000000
H     6.578000000     4.430000000    -2.309000000
H     5.928000000     3.940000000    -3.585000000
O    -1.188000000     0.093000000    -8.129000000
H    -0.457000000     0.191000000    -7.519000000
H    -1.952000000     0.396000000    -7.638000000
O     8.752000000     1.930000000    -0.431000000
H     9.294000000     1.148000000    -0.330000000
H     7.874000000     1.592000000    -0.607000000
O     7.546000000     0.487000000    -3.265000000
H     8.138000000     1.157000000    -2.924000000
H     6.830000000     0.455000000    -2.630000000
O     6.822000000     4.107000000    -0.568000000
H     7.722000000     3.859000000    -0.359000000
H     6.357000000     3.274000000    -0.650000000
O     5.955000000     2.005000000    -4.674000000
H     5.150000000     1.631000000    -4.316000000
H     6.653000000     1.452000000    -4.321000000
O     5.199000000    -5.537000000    -2.450000000
H     5.312000000    -6.484000000    -2.377000000
H     5.039000000    -5.385000000    -3.381000000
