215
-1430.35684
C     0.294000000    -3.089000000     3.270000000
H    -0.489000000    -3.555000000     2.677000000
C    -0.002000000    -1.852000000     3.902000000
C     0.918000000    -1.134000000     4.695000000
H     0.641000000    -0.135000000     5.023000000
C    -1.359000000    -1.257000000     3.582000000
O    -2.488000000    -2.095000000     3.523000000
H    -1.147000000    -0.849000000     2.583000000
O    -1.540000000    -0.106000000     4.386000000
C    -1.893000000     0.971000000     3.624000000
C    -0.946000000     1.969000000     3.618000000
H     0.063000000     1.758000000     3.963000000
C    -1.237000000     3.120000000     2.894000000
O    -0.263000000     4.065000000     2.757000000
C    -2.471000000     3.275000000     2.263000000
C    -2.840000000     4.512000000     1.522000000
H    -3.931000000     4.561000000     1.502000000
C    -2.246000000     4.532000000     0.127000000
C    -3.119000000     4.023000000    -0.879000000
H    -4.171000000     3.907000000    -0.632000000
H    -2.529000000     5.436000000     2.013000000
C    -3.460000000     2.326000000     2.510000000
H    -4.423000000     2.511000000     2.042000000
C    -3.166000000     1.157000000     3.157000000
C    -4.276000000     0.125000000     3.287000000
H    -5.254000000     0.592000000     3.153000000
H    -4.335000000    -0.241000000     4.314000000
C    -4.133000000    -0.919000000     2.235000000
C    -4.877000000    -0.877000000     1.028000000
H    -5.543000000    -0.033000000     0.867000000
C    -3.326000000    -2.008000000     2.444000000
C    -3.277000000    -3.066000000     1.527000000
H    -2.594000000    -3.906000000     1.624000000
C    -3.938000000    -2.898000000     0.271000000
O    -3.618000000    -3.735000000    -0.727000000
C    -2.644000000    -3.267000000    -1.724000000
C    -1.719000000    -4.332000000    -2.129000000
C    -1.192000000    -4.457000000    -3.405000000
H    -1.445000000    -3.638000000    -4.074000000
C    -1.313000000    -5.383000000    -1.238000000
H    -1.612000000    -5.369000000    -0.193000000
O    -3.281000000    -2.777000000    -2.835000000
H    -2.028000000    -2.485000000    -1.256000000
C    -4.734000000    -1.763000000    -0.012000000
C    -5.361000000    -1.535000000    -1.353000000
H    -6.289000000    -0.966000000    -1.264000000
H    -5.616000000    -2.421000000    -1.938000000
C    -4.346000000    -0.788000000    -2.149000000
C    -4.283000000     0.619000000    -2.093000000
H    -5.029000000     1.175000000    -1.530000000
C    -3.316000000    -1.419000000    -2.808000000
C    -2.289000000    -0.678000000    -3.415000000
H    -1.510000000    -1.254000000    -3.908000000
C    -2.233000000     0.704000000    -3.378000000
O    -1.246000000     1.376000000    -4.103000000
C    -0.251000000     2.007000000    -3.281000000
C     1.103000000     1.591000000    -3.710000000
C     1.235000000     0.323000000    -4.257000000
H     0.394000000    -0.292000000    -4.567000000
C     2.341000000     2.216000000    -3.331000000
H     2.211000000     3.138000000    -2.771000000
O    -0.514000000     3.413000000    -3.426000000
H    -0.384000000     1.654000000    -2.248000000
C    -3.305000000     1.378000000    -2.858000000
C    -3.489000000     2.844000000    -3.134000000
H    -4.564000000     2.999000000    -3.024000000
H    -3.137000000     3.149000000    -4.122000000
C    -2.619000000     3.632000000    -2.161000000
C    -1.244000000     3.901000000    -2.317000000
C    -0.455000000     4.573000000    -1.397000000
H     0.581000000     4.777000000    -1.657000000
C    -0.933000000     4.948000000    -0.179000000
O    -0.089000000     5.295000000     0.806000000
C     0.449000000     4.115000000     1.544000000
H     0.293000000     3.174000000     0.996000000
C     1.956000000     4.190000000     1.853000000
C     2.447000000     3.931000000     3.184000000
H     1.735000000     3.532000000     3.902000000
C     2.919000000     4.671000000     1.008000000
H     2.571000000     4.880000000     0.000000000
C     4.263000000     4.764000000     1.397000000
O     5.242000000     5.208000000     0.528000000
C     4.666000000     4.519000000     2.691000000
H     5.694000000     4.715000000     2.986000000
C     3.762000000     4.041000000     3.580000000
O     4.288000000     3.581000000     4.759000000
C     3.717000000     2.588000000     5.511000000
C     3.752000000     1.218000000     5.118000000
H     4.226000000     0.891000000     4.196000000
C     3.127000000     2.930000000     6.753000000
H     3.056000000     3.984000000     7.008000000
C     2.467000000     1.905000000     7.465000000
H     1.939000000     2.160000000     8.380000000
C     2.512000000     0.599000000     7.088000000
H     2.033000000    -0.160000000     7.701000000
C     3.171000000     0.240000000     5.932000000
O     3.213000000    -1.089000000     5.549000000
C     2.198000000    -1.733000000     4.902000000
C     2.466000000    -3.038000000     4.345000000
H     3.466000000    -3.410000000     4.549000000
C     1.519000000    -3.759000000     3.554000000
O     1.887000000    -4.992000000     3.051000000
C     1.062000000    -5.795000000     2.481000000
C     0.994000000    -5.987000000     1.089000000
H     1.600000000    -5.395000000     0.409000000
C     0.317000000    -6.567000000     3.367000000
H     0.510000000    -6.495000000     4.434000000
C    -0.553000000    -7.523000000     2.873000000
H    -1.157000000    -8.035000000     3.618000000
C    -0.603000000    -7.767000000     1.517000000
H    -1.288000000    -8.516000000     1.129000000
C     0.204000000    -7.037000000     0.644000000
O     0.049000000    -7.311000000    -0.750000000
C    -0.441000000    -6.451000000    -1.647000000
C     0.050000000    -6.465000000    -2.948000000
H     0.714000000    -7.272000000    -3.248000000
C    -0.333000000    -5.475000000    -3.808000000
O     0.205000000    -5.483000000    -5.061000000
C     0.377000000    -4.259000000    -5.786000000
C     1.383000000    -3.406000000    -5.334000000
H     1.990000000    -3.602000000    -4.453000000
C    -0.412000000    -3.906000000    -6.912000000
H    -1.200000000    -4.496000000    -7.374000000
C    -0.201000000    -2.651000000    -7.455000000
H    -0.662000000    -2.339000000    -8.389000000
C     0.775000000    -1.820000000    -7.055000000
H     0.911000000    -0.894000000    -7.608000000
C     1.530000000    -2.128000000    -5.919000000
O     2.579000000    -1.320000000    -5.502000000
C     2.476000000    -0.167000000    -4.739000000
C     3.678000000     0.452000000    -4.313000000
H     4.697000000     0.133000000    -4.516000000
C     3.610000000     1.667000000    -3.593000000
O     4.797000000     2.258000000    -3.168000000
C     4.926000000     3.539000000    -2.715000000
C     4.739000000     4.647000000    -3.529000000
H     4.653000000     4.440000000    -4.593000000
C     4.799000000     5.997000000    -3.016000000
H     4.608000000     6.846000000    -3.667000000
C     4.985000000     6.167000000    -1.659000000
H     5.093000000     7.091000000    -1.097000000
C     5.103000000     5.065000000    -0.848000000
C     4.995000000     3.737000000    -1.371000000
H     5.032000000     2.864000000    -0.725000000
C     2.400000000    -1.577000000    -1.801000000
H     2.869000000    -2.354000000    -2.401000000
C     1.043000000    -1.530000000    -1.577000000
H     0.414000000    -2.228000000    -2.124000000
C     0.529000000    -0.614000000    -0.632000000
H    -0.511000000    -0.644000000    -0.442000000
C     1.328000000     0.387000000    -0.074000000
H     0.787000000     1.019000000     0.626000000
C     2.684000000     0.318000000    -0.282000000
H     3.282000000     0.969000000     0.351000000
C     3.217000000    -0.651000000    -1.208000000
C     4.728000000    -0.755000000    -1.330000000
O     5.370000000    -0.107000000    -0.550000000
O     5.298000000    -1.796000000    -1.696000000
O     4.069000000    -6.304000000    -2.039000000
H     3.869000000    -5.431000000    -2.375000000
H     4.692000000    -6.151000000    -1.328000000
O     8.210000000    -4.704000000    -2.547000000
H     8.027000000    -3.875000000    -2.991000000
H     8.610000000    -5.253000000    -3.222000000
O     8.695000000    -2.144000000    -3.838000000
H     8.224000000    -1.485000000    -3.326000000
H     9.619000000    -1.975000000    -3.653000000
O     5.299000000    -3.797000000    -3.550000000
H     5.426000000    -3.438000000    -4.429000000
H     5.394000000    -3.043000000    -2.968000000
O     5.904000000    -3.136000000     2.456000000
H     6.528000000    -3.790000000     2.773000000
H     5.623000000    -3.468000000     1.604000000
O     4.805000000    -6.198000000     0.938000000
H     5.475000000    -6.527000000     0.339000000
H     4.522000000    -5.370000000     0.549000000
O     9.660000000    -0.364000000    -0.212000000
H     9.211000000     0.288000000     0.326000000
H     9.104000000    -1.141000000    -0.162000000
O     4.247000000    -3.709000000    -0.160000000
H     3.631000000    -3.163000000     0.329000000
H     4.645000000    -3.112000000    -0.793000000
O     9.778000000    -2.694000000     1.791000000
H    10.134000000    -3.276000000     2.462000000
H     8.845000000    -2.634000000     1.998000000
O     8.757000000     1.985000000    -3.686000000
H     8.385000000     1.192000000    -3.300000000
H     8.781000000     2.614000000    -2.965000000
O     7.557000000    -2.441000000    -0.209000000
H     6.748000000    -2.001000000    -0.469000000
H     7.627000000    -3.187000000    -0.805000000
O     6.480000000    -0.407000000     1.614000000
H     6.487000000    -1.364000000     1.627000000
H     6.017000000    -0.182000000     0.807000000
O     7.313000000     1.011000000     4.148000000
H     7.083000000     0.221000000     4.636000000
H     7.159000000     0.780000000     3.232000000
O     6.454000000    -1.409000000     5.011000000
H     5.959000000    -1.941000000     5.635000000
H     6.410000000    -1.901000000     4.191000000
O     6.512000000    -3.123000000    -6.498000000
H     7.336000000    -2.678000000    -6.696000000
H     5.836000000    -2.536000000    -6.837000000
O     7.874000000     1.622000000    -0.464000000
H     7.137000000     1.283000000     0.044000000
H     7.914000000     2.551000000    -0.237000000
O     7.380000000    -0.302000000    -2.441000000
H     6.687000000    -0.859000000    -2.087000000
H     7.506000000     0.375000000    -1.776000000
O     6.804000000    -6.427000000    -0.854000000
H     7.464000000    -6.727000000    -0.230000000
H     7.163000000    -5.614000000    -1.210000000
O     3.974000000    -2.173000000    -7.574000000
H     3.376000000    -2.457000000    -8.265000000
H     3.462000000    -2.248000000    -6.769000000
