215
-1466.41961
C     0.767000000    -2.571000000     4.915000000
H    -0.138000000    -3.130000000     5.137000000
C     0.690000000    -1.234000000     4.474000000
C     1.741000000    -0.410000000     4.228000000
H     1.534000000     0.603000000     3.892000000
C    -0.757000000    -0.650000000     4.273000000
O    -1.828000000    -1.565000000     4.742000000
H    -0.862000000    -0.592000000     3.179000000
O    -0.952000000     0.704000000     4.813000000
C    -1.501000000     1.629000000     3.944000000
C    -0.744000000     2.638000000     3.433000000
H     0.308000000     2.773000000     3.673000000
C    -1.279000000     3.598000000     2.562000000
O    -0.410000000     4.481000000     2.055000000
C    -2.626000000     3.511000000     2.206000000
C    -3.193000000     4.526000000     1.238000000
H    -4.284000000     4.546000000     1.290000000
C    -2.967000000     4.085000000    -0.180000000
C    -3.816000000     3.187000000    -0.821000000
H    -4.676000000     2.851000000    -0.247000000
H    -2.854000000     5.555000000     1.378000000
C    -3.438000000     2.510000000     2.770000000
H    -4.459000000     2.264000000     2.491000000
C    -2.844000000     1.520000000     3.576000000
C    -3.724000000     0.393000000     4.134000000
H    -4.756000000     0.750000000     4.132000000
H    -3.511000000     0.220000000     5.191000000
C    -3.715000000    -0.921000000     3.389000000
C    -4.486000000    -1.094000000     2.239000000
H    -5.063000000    -0.224000000     1.934000000
C    -2.744000000    -1.869000000     3.754000000
C    -2.364000000    -2.896000000     2.894000000
H    -1.543000000    -3.603000000     2.982000000
C    -3.121000000    -3.004000000     1.727000000
O    -2.637000000    -3.951000000     0.844000000
C    -1.857000000    -3.537000000    -0.310000000
C    -0.649000000    -4.389000000    -0.530000000
C     0.056000000    -4.196000000    -1.705000000
H    -0.305000000    -3.370000000    -2.313000000
C    -0.105000000    -5.327000000     0.354000000
H    -0.568000000    -5.405000000     1.335000000
O    -2.688000000    -3.604000000    -1.535000000
H    -1.536000000    -2.503000000    -0.119000000
C    -4.233000000    -2.206000000     1.425000000
C    -4.926000000    -2.429000000     0.121000000
H    -5.963000000    -2.093000000     0.185000000
H    -5.030000000    -3.500000000    -0.065000000
C    -4.216000000    -1.802000000    -1.084000000
C    -4.540000000    -0.481000000    -1.404000000
H    -5.233000000     0.038000000    -0.747000000
C    -3.226000000    -2.415000000    -1.892000000
C    -2.720000000    -1.754000000    -3.048000000
H    -1.951000000    -2.289000000    -3.597000000
C    -3.114000000    -0.444000000    -3.348000000
O    -2.409000000     0.205000000    -4.314000000
C    -1.402000000     1.146000000    -3.881000000
C    -0.211000000     0.959000000    -4.811000000
C    -0.003000000    -0.308000000    -5.428000000
H    -0.667000000    -1.146000000    -5.234000000
C     0.687000000     1.948000000    -5.015000000
H     0.467000000     2.950000000    -4.653000000
O    -1.856000000     2.520000000    -3.843000000
H    -1.157000000     0.986000000    -2.821000000
C    -4.080000000     0.194000000    -2.553000000
C    -4.450000000     1.693000000    -2.747000000
H    -5.523000000     1.806000000    -2.580000000
H    -4.373000000     1.822000000    -3.829000000
C    -3.534000000     2.655000000    -2.078000000
C    -2.304000000     3.064000000    -2.680000000
C    -1.491000000     4.035000000    -2.102000000
H    -0.525000000     4.267000000    -2.542000000
C    -1.851000000     4.545000000    -0.839000000
O    -0.777000000     5.152000000    -0.139000000
C     0.022000000     4.336000000     0.673000000
H     0.031000000     3.287000000     0.343000000
C     1.473000000     4.618000000     0.611000000
C     2.299000000     4.576000000     1.735000000
H     1.877000000     4.545000000     2.737000000
C     2.085000000     4.591000000    -0.663000000
H     1.508000000     4.728000000    -1.573000000
C     3.510000000     4.599000000    -0.740000000
O     4.131000000     4.652000000    -1.981000000
C     4.332000000     4.614000000     0.337000000
H     5.415000000     4.697000000     0.282000000
C     3.709000000     4.511000000     1.568000000
O     4.507000000     4.468000000     2.704000000
C     4.239000000     3.622000000     3.755000000
C     4.265000000     2.237000000     3.606000000
H     4.617000000     1.765000000     2.692000000
C     3.951000000     4.108000000     5.002000000
H     4.075000000     5.176000000     5.159000000
C     3.451000000     3.265000000     5.997000000
H     3.019000000     3.668000000     6.909000000
C     3.475000000     1.884000000     5.850000000
H     3.114000000     1.200000000     6.614000000
C     3.964000000     1.364000000     4.697000000
O     4.130000000     0.028000000     4.519000000
C     3.049000000    -0.901000000     4.458000000
C     3.196000000    -2.189000000     4.917000000
H     4.203000000    -2.563000000     5.082000000
C     2.067000000    -3.053000000     4.983000000
O     2.242000000    -4.390000000     5.258000000
C     1.683000000    -5.362000000     4.483000000
C     1.866000000    -5.429000000     3.102000000
H     2.405000000    -4.645000000     2.577000000
C     1.104000000    -6.453000000     5.166000000
H     0.960000000    -6.404000000     6.242000000
C     0.598000000    -7.595000000     4.478000000
H     0.045000000    -8.397000000     4.960000000
C     0.816000000    -7.656000000     3.111000000
H     0.480000000    -8.551000000     2.593000000
C     1.510000000    -6.604000000     2.437000000
O     1.665000000    -6.721000000     1.065000000
C     1.124000000    -5.916000000     0.139000000
C     1.868000000    -5.629000000    -0.981000000
H     2.805000000    -6.125000000    -1.223000000
C     1.308000000    -4.746000000    -1.949000000
O     2.055000000    -4.213000000    -2.962000000
C     1.548000000    -4.115000000    -4.189000000
C     1.869000000    -2.942000000    -4.954000000
H     2.427000000    -2.130000000    -4.494000000
C     0.847000000    -5.099000000    -4.788000000
H     0.598000000    -6.003000000    -4.237000000
C     0.591000000    -5.088000000    -6.144000000
H     0.052000000    -5.887000000    -6.647000000
C     0.721000000    -3.885000000    -6.796000000
H     0.427000000    -3.777000000    -7.837000000
C     1.324000000    -2.798000000    -6.293000000
O     1.307000000    -1.644000000    -7.000000000
C     1.065000000    -0.417000000    -6.311000000
C     1.901000000     0.639000000    -6.637000000
H     2.690000000     0.508000000    -7.373000000
C     1.733000000     1.860000000    -5.918000000
O     2.529000000     2.910000000    -6.226000000
C     2.717000000     3.992000000    -5.285000000
C     2.168000000     5.237000000    -5.600000000
H     1.698000000     5.419000000    -6.563000000
C     2.435000000     6.381000000    -4.789000000
H     2.177000000     7.399000000    -5.072000000
C     3.128000000     6.210000000    -3.568000000
H     3.420000000     7.077000000    -2.980000000
C     3.536000000     4.942000000    -3.155000000
C     3.391000000     3.859000000    -4.046000000
H     3.928000000     2.947000000    -3.798000000
C     2.660000000     0.017000000    -1.895000000
H     3.212000000    -0.232000000    -2.798000000
C     1.342000000    -0.305000000    -1.878000000
H     0.944000000    -0.771000000    -2.776000000
C     0.513000000    -0.103000000    -0.741000000
H    -0.494000000    -0.522000000    -0.784000000
C     1.054000000     0.467000000     0.365000000
H     0.421000000     0.667000000     1.226000000
C     2.389000000     0.805000000     0.334000000
H     2.837000000     1.227000000     1.229000000
C     3.256000000     0.549000000    -0.785000000
C     4.663000000     1.065000000    -0.829000000
O     5.206000000     1.402000000     0.185000000
O     5.322000000     0.962000000    -1.858000000
O     7.434000000     1.356000000     3.935000000
H     7.204000000     1.559000000     3.028000000
H     7.740000000     2.188000000     4.296000000
O    10.840000000     1.696000000    -1.928000000
H    10.478000000     1.399000000    -1.094000000
H    10.081000000     1.776000000    -2.505000000
O     5.369000000     1.226000000    -4.651000000
H     5.117000000     1.205000000    -3.727000000
H     6.030000000     0.539000000    -4.734000000
O     6.929000000     6.480000000    -4.024000000
H     6.653000000     5.571000000    -4.146000000
H     6.332000000     6.987000000    -4.573000000
O     7.004000000    -1.127000000     5.174000000
H     6.746000000    -1.938000000     4.735000000
H     6.955000000    -0.459000000     4.490000000
O     9.101000000    -1.689000000     0.744000000
H     9.603000000    -0.881000000     0.855000000
H     8.187000000    -1.404000000     0.734000000
O     7.914000000    -0.566000000    -4.746000000
H     8.817000000    -0.574000000    -5.063000000
H     7.991000000    -0.684000000    -3.799000000
O     9.486000000     1.134000000     0.532000000
H    10.176000000     1.262000000     1.184000000
H     8.806000000     1.761000000     0.778000000
O     6.068000000    -3.912000000    -2.020000000
H     5.667000000    -4.747000000    -2.261000000
H     5.329000000    -3.346000000    -1.798000000
O     6.756000000     3.402000000    -1.683000000
H     6.076000000     4.059000000    -1.833000000
H     6.292000000     2.565000000    -1.716000000
O     9.086000000     4.258000000    -0.297000000
H     8.367000000     3.718000000    -0.625000000
H     8.735000000     4.669000000     0.494000000
O     8.520000000    -4.365000000    -1.309000000
H     8.744000000    -3.486000000    -1.003000000
H     7.581000000    -4.323000000    -1.491000000
O     7.571000000     6.125000000     1.048000000
H     8.211000000     6.767000000     1.353000000
H     7.531000000     6.257000000     0.101000000
O     7.642000000    -0.631000000    -2.014000000
H     7.962000000    -0.453000000    -1.130000000
H     6.769000000    -0.237000000    -2.037000000
O     7.228000000     2.679000000     1.218000000
H     6.727000000     3.473000000     1.406000000
H     6.601000000     2.096000000     0.789000000
O     3.713000000    -3.033000000    -0.840000000
H     3.209000000    -2.809000000    -1.622000000
H     3.464000000    -3.936000000    -0.645000000
O     8.714000000     2.490000000    -3.568000000
H     8.164000000     2.960000000    -4.196000000
H     8.214000000     2.507000000    -2.752000000
O     6.449000000    -1.054000000     0.594000000
H     5.936000000    -1.717000000     0.132000000
H     5.900000000    -0.270000000     0.573000000
O     6.410000000     3.932000000    -4.798000000
H     5.838000000     3.172000000    -4.686000000
H     6.505000000     4.022000000    -5.746000000
