215
-1417.64436
C     1.215000000    -2.533000000     4.935000000
H     0.488000000    -3.339000000     4.882000000
C     0.925000000    -1.219000000     4.670000000
C     1.932000000    -0.354000000     4.623000000
H     1.795000000     0.610000000     4.140000000
C    -0.489000000    -0.803000000     4.295000000
O    -1.558000000    -1.687000000     4.638000000
H    -0.550000000    -0.768000000     3.197000000
O    -0.876000000     0.581000000     4.713000000
C    -1.641000000     1.417000000     3.906000000
C    -0.956000000     2.541000000     3.403000000
H     0.020000000     2.787000000     3.814000000
C    -1.541000000     3.346000000     2.453000000
O    -0.688000000     4.257000000     1.924000000
C    -2.871000000     3.152000000     2.003000000
C    -3.570000000     4.136000000     1.074000000
H    -4.607000000     4.349000000     1.341000000
C    -3.320000000     3.783000000    -0.360000000
C    -4.332000000     3.198000000    -1.129000000
H    -5.234000000     2.768000000    -0.702000000
H    -3.099000000     5.119000000     1.145000000
C    -3.555000000     2.051000000     2.607000000
H    -4.589000000     1.816000000     2.368000000
C    -2.984000000     1.214000000     3.565000000
C    -3.790000000     0.081000000     4.186000000
H    -4.866000000     0.266000000     4.162000000
H    -3.554000000     0.018000000     5.250000000
C    -3.576000000    -1.243000000     3.429000000
C    -4.391000000    -1.436000000     2.320000000
H    -5.297000000    -0.848000000     2.202000000
C    -2.458000000    -1.987000000     3.677000000
C    -2.135000000    -2.910000000     2.717000000
H    -1.274000000    -3.567000000     2.812000000
C    -2.893000000    -3.157000000     1.584000000
O    -2.383000000    -4.060000000     0.621000000
C    -1.706000000    -3.486000000    -0.489000000
C    -0.376000000    -4.263000000    -0.765000000
C     0.332000000    -4.142000000    -1.995000000
H     0.052000000    -3.430000000    -2.767000000
C     0.217000000    -4.966000000     0.307000000
H    -0.242000000    -4.926000000     1.291000000
O    -2.637000000    -3.597000000    -1.649000000
H    -1.544000000    -2.443000000    -0.182000000
C    -4.046000000    -2.427000000     1.362000000
C    -4.912000000    -2.651000000     0.095000000
H    -5.898000000    -2.196000000     0.207000000
H    -4.988000000    -3.728000000    -0.069000000
C    -4.397000000    -1.889000000    -1.210000000
C    -4.835000000    -0.588000000    -1.545000000
H    -5.438000000    -0.050000000    -0.817000000
C    -3.375000000    -2.507000000    -2.022000000
C    -2.801000000    -1.793000000    -3.051000000
H    -1.907000000    -2.069000000    -3.604000000
C    -3.275000000    -0.547000000    -3.388000000
O    -2.681000000     0.107000000    -4.397000000
C    -1.694000000     1.178000000    -4.245000000
C    -0.517000000     1.143000000    -5.148000000
C    -0.006000000    -0.060000000    -5.640000000
H    -0.594000000    -0.959000000    -5.473000000
C     0.309000000     2.282000000    -5.310000000
H     0.087000000     3.244000000    -4.857000000
O    -2.356000000     2.502000000    -4.256000000
H    -1.241000000     1.082000000    -3.248000000
C    -4.279000000     0.062000000    -2.646000000
C    -4.798000000     1.469000000    -3.026000000
H    -5.867000000     1.615000000    -2.858000000
H    -4.657000000     1.656000000    -4.092000000
C    -4.001000000     2.696000000    -2.417000000
C    -2.763000000     3.016000000    -3.018000000
C    -1.825000000     3.764000000    -2.346000000
H    -0.855000000     3.939000000    -2.805000000
C    -2.064000000     4.117000000    -1.007000000
O    -0.971000000     4.725000000    -0.350000000
C    -0.209000000     3.945000000     0.631000000
H    -0.360000000     2.889000000     0.362000000
C     1.322000000     4.210000000     0.529000000
C     2.075000000     4.306000000     1.719000000
H     1.549000000     4.321000000     2.670000000
C     2.055000000     4.144000000    -0.667000000
H     1.598000000     4.006000000    -1.643000000
C     3.423000000     4.375000000    -0.721000000
O     4.092000000     4.387000000    -1.869000000
C     4.140000000     4.525000000     0.460000000
H     5.219000000     4.621000000     0.365000000
C     3.483000000     4.454000000     1.722000000
O     4.279000000     4.657000000     2.860000000
C     3.974000000     3.849000000     3.967000000
C     4.224000000     2.439000000     3.858000000
H     4.642000000     2.107000000     2.911000000
C     3.769000000     4.387000000     5.194000000
H     3.632000000     5.453000000     5.359000000
C     3.567000000     3.574000000     6.307000000
H     3.405000000     4.138000000     7.222000000
C     3.667000000     2.198000000     6.206000000
H     3.510000000     1.507000000     7.030000000
C     4.068000000     1.625000000     4.964000000
O     4.244000000     0.252000000     4.845000000
C     3.296000000    -0.715000000     4.841000000
C     3.558000000    -2.008000000     5.206000000
H     4.609000000    -2.269000000     5.303000000
C     2.482000000    -2.921000000     5.212000000
O     2.843000000    -4.240000000     5.442000000
C     2.281000000    -5.304000000     4.713000000
C     2.244000000    -5.180000000     3.341000000
H     2.842000000    -4.373000000     2.926000000
C     1.562000000    -6.363000000     5.288000000
H     1.403000000    -6.543000000     6.348000000
C     1.034000000    -7.441000000     4.526000000
H     0.567000000    -8.305000000     4.992000000
C     1.177000000    -7.365000000     3.117000000
H     1.115000000    -8.287000000     2.543000000
C     1.708000000    -6.233000000     2.567000000
O     2.034000000    -6.257000000     1.227000000
C     1.421000000    -5.632000000     0.153000000
C     2.080000000    -5.455000000    -1.032000000
H     3.085000000    -5.870000000    -1.039000000
C     1.531000000    -4.756000000    -2.125000000
O     2.350000000    -4.586000000    -3.242000000
C     1.783000000    -4.237000000    -4.478000000
C     2.064000000    -3.075000000    -5.020000000
H     2.869000000    -2.451000000    -4.639000000
C     0.779000000    -5.024000000    -5.047000000
H     0.574000000    -6.000000000    -4.613000000
C    -0.051000000    -4.527000000    -6.072000000
H    -0.842000000    -5.162000000    -6.460000000
C     0.277000000    -3.288000000    -6.677000000
H    -0.233000000    -3.006000000    -7.594000000
C     1.358000000    -2.613000000    -6.174000000
O     1.687000000    -1.415000000    -6.746000000
C     1.277000000    -0.215000000    -6.252000000
C     2.042000000     0.892000000    -6.370000000
H     3.024000000     0.800000000    -6.827000000
C     1.591000000     2.149000000    -5.836000000
O     2.268000000     3.329000000    -6.132000000
C     2.657000000     4.279000000    -5.205000000
C     2.256000000     5.574000000    -5.360000000
H     1.607000000     5.845000000    -6.189000000
C     2.533000000     6.511000000    -4.420000000
H     2.185000000     7.528000000    -4.582000000
C     3.248000000     6.113000000    -3.290000000
H     3.532000000     6.895000000    -2.590000000
C     3.544000000     4.767000000    -3.028000000
C     3.270000000     3.839000000    -4.041000000
H     3.401000000     2.765000000    -3.941000000
C     2.168000000     0.088000000    -2.290000000
H     2.602000000    -0.214000000    -3.240000000
C     0.830000000    -0.128000000    -2.013000000
H     0.225000000    -0.547000000    -2.814000000
C     0.217000000     0.128000000    -0.860000000
H    -0.814000000    -0.198000000    -0.612000000
C     0.999000000     0.663000000     0.186000000
H     0.543000000     0.790000000     1.164000000
C     2.345000000     0.871000000    -0.020000000
H     2.977000000     1.215000000     0.794000000
C     2.919000000     0.687000000    -1.262000000
C     4.435000000     0.925000000    -1.566000000
O     5.188000000     1.151000000    -0.657000000
O     4.849000000     0.700000000    -2.653000000
O    10.583000000     1.257000000    -4.266000000
H    10.461000000     1.132000000    -3.325000000
H    10.764000000     0.380000000    -4.603000000
O     8.290000000     1.920000000     3.349000000
H     7.606000000     1.751000000     2.701000000
H     8.152000000     2.830000000     3.611000000
O    10.164000000     0.862000000    -1.476000000
H    10.381000000     1.636000000    -0.957000000
H     9.363000000     0.523000000    -1.075000000
O     5.297000000    -0.636000000    -4.798000000
H     4.975000000    -0.150000000    -4.038000000
H     6.226000000    -0.778000000    -4.614000000
O     7.198000000    -3.655000000    -4.649000000
H     6.465000000    -3.622000000    -5.263000000
H     7.386000000    -2.737000000    -4.452000000
O     6.975000000    -1.798000000     2.924000000
H     6.567000000    -2.662000000     2.966000000
H     6.543000000    -1.364000000     2.188000000
O     8.222000000    -1.146000000    -4.867000000
H     9.084000000    -1.535000000    -5.019000000
H     8.380000000    -0.202000000    -4.881000000
O     5.319000000    -4.124000000    -2.601000000
H     4.522000000    -3.631000000    -2.796000000
H     5.863000000    -4.017000000    -3.382000000
O     5.727000000    -0.605000000    -7.663000000
H     5.571000000    -0.599000000    -6.718000000
H     6.665000000    -0.777000000    -7.749000000
O     6.900000000    -3.368000000    -0.460000000
H     6.147000000    -3.593000000    -1.008000000
H     6.591000000    -2.644000000     0.085000000
O     6.430000000     3.104000000    -2.481000000
H     5.645000000     3.614000000    -2.679000000
H     6.096000000     2.256000000    -2.185000000
O     7.732000000     4.269000000    -0.584000000
H     7.236000000     3.792000000    -1.249000000
H     7.242000000     5.080000000    -0.456000000
O     9.142000000    -2.699000000    -1.825000000
H     8.684000000    -1.890000000    -2.053000000
H     8.648000000    -3.054000000    -1.086000000
O     6.150000000     6.787000000    -0.631000000
H     5.319000000     6.644000000    -0.178000000
H     5.968000000     7.499000000    -1.245000000
O     7.615000000    -0.308000000    -0.952000000
H     6.987000000    -0.487000000    -0.252000000
H     7.089000000     0.073000000    -1.655000000
O     6.549000000     2.201000000     1.186000000
H     7.074000000     2.853000000     0.721000000
H     6.004000000     1.804000000     0.507000000
O     3.886000000    -3.478000000     0.900000000
H     3.069000000    -3.947000000     0.732000000
H     4.379000000    -4.058000000     1.481000000
O     7.608000000     1.779000000    -4.765000000
H     7.737000000     2.525000000    -4.180000000
H     6.683000000     1.552000000    -4.664000000
O     5.473000000    -1.323000000     0.384000000
H     4.739000000    -1.933000000     0.457000000
H     5.108000000    -0.562000000    -0.067000000
