215
-1449.61929
C     0.911000000    -2.808000000     4.464000000
H     0.147000000    -3.576000000     4.375000000
C     0.699000000    -1.397000000     4.327000000
C     1.855000000    -0.586000000     4.284000000
H     1.799000000     0.489000000     4.134000000
C    -0.672000000    -0.777000000     4.124000000
O    -1.705000000    -1.655000000     4.433000000
H    -0.774000000    -0.573000000     3.047000000
O    -0.856000000     0.494000000     4.803000000
C    -1.445000000     1.471000000     4.117000000
C    -0.599000000     2.467000000     3.634000000
H     0.467000000     2.357000000     3.821000000
C    -1.076000000     3.465000000     2.785000000
O    -0.141000000     4.334000000     2.188000000
C    -2.401000000     3.478000000     2.367000000
C    -3.015000000     4.380000000     1.334000000
H    -4.104000000     4.401000000     1.415000000
C    -2.667000000     4.033000000    -0.103000000
C    -3.529000000     3.210000000    -0.807000000
H    -4.446000000     2.982000000    -0.270000000
H    -2.624000000     5.375000000     1.558000000
C    -3.263000000     2.396000000     2.803000000
H    -4.269000000     2.223000000     2.429000000
C    -2.805000000     1.459000000     3.731000000
C    -3.711000000     0.357000000     4.150000000
H    -4.667000000     0.853000000     4.329000000
H    -3.431000000    -0.009000000     5.140000000
C    -3.647000000    -0.801000000     3.201000000
C    -4.483000000    -1.000000000     2.108000000
H    -5.290000000    -0.303000000     1.901000000
C    -2.738000000    -1.822000000     3.461000000
C    -2.582000000    -2.956000000     2.684000000
H    -1.884000000    -3.749000000     2.941000000
C    -3.424000000    -3.126000000     1.598000000
O    -3.139000000    -4.184000000     0.698000000
C    -2.323000000    -3.664000000    -0.439000000
C    -1.072000000    -4.529000000    -0.645000000
C    -0.250000000    -4.163000000    -1.756000000
H    -0.497000000    -3.336000000    -2.416000000
C    -0.656000000    -5.513000000     0.268000000
H    -1.199000000    -5.765000000     1.175000000
O    -3.012000000    -3.428000000    -1.695000000
H    -1.953000000    -2.643000000    -0.261000000
C    -4.327000000    -2.123000000     1.248000000
C    -5.093000000    -2.249000000    -0.102000000
H    -6.085000000    -1.815000000     0.041000000
H    -5.335000000    -3.295000000    -0.301000000
C    -4.366000000    -1.552000000    -1.228000000
C    -4.686000000    -0.227000000    -1.517000000
H    -5.381000000     0.298000000    -0.867000000
C    -3.409000000    -2.232000000    -2.017000000
C    -2.704000000    -1.583000000    -3.006000000
H    -1.937000000    -2.094000000    -3.581000000
C    -2.948000000    -0.191000000    -3.242000000
O    -2.298000000     0.485000000    -4.263000000
C    -1.258000000     1.405000000    -3.951000000
C     0.014000000     1.217000000    -4.754000000
C     0.254000000     0.027000000    -5.422000000
H    -0.490000000    -0.765000000    -5.382000000
C     0.906000000     2.257000000    -4.865000000
H     0.560000000     3.203000000    -4.458000000
O    -1.752000000     2.709000000    -3.943000000
H    -0.970000000     1.157000000    -2.919000000
C    -3.962000000     0.427000000    -2.526000000
C    -4.329000000     1.842000000    -2.837000000
H    -5.349000000     2.098000000    -2.542000000
H    -4.049000000     2.020000000    -3.878000000
C    -3.358000000     2.776000000    -2.154000000
C    -2.165000000     3.236000000    -2.752000000
C    -1.242000000     3.991000000    -2.047000000
H    -0.319000000     4.356000000    -2.490000000
C    -1.508000000     4.371000000    -0.751000000
O    -0.538000000     5.065000000    -0.053000000
C     0.206000000     4.201000000     0.825000000
H     0.060000000     3.154000000     0.524000000
C     1.746000000     4.445000000     0.653000000
C     2.498000000     4.335000000     1.778000000
H     2.055000000     4.129000000     2.749000000
C     2.328000000     4.753000000    -0.616000000
H     1.752000000     4.812000000    -1.535000000
C     3.706000000     4.689000000    -0.672000000
O     4.395000000     4.962000000    -1.864000000
C     4.509000000     4.559000000     0.474000000
H     5.593000000     4.529000000     0.394000000
C     3.885000000     4.261000000     1.669000000
O     4.607000000     4.045000000     2.843000000
C     4.283000000     3.280000000     3.956000000
C     4.496000000     1.897000000     3.852000000
H     4.721000000     1.549000000     2.847000000
C     3.645000000     3.825000000     5.072000000
H     3.514000000     4.904000000     5.060000000
C     3.401000000     3.011000000     6.145000000
H     2.992000000     3.353000000     7.093000000
C     3.711000000     1.622000000     6.084000000
H     3.621000000     1.006000000     6.975000000
C     4.218000000     1.071000000     4.892000000
O     4.243000000    -0.304000000     4.660000000
C     3.115000000    -1.107000000     4.588000000
C     3.282000000    -2.474000000     4.817000000
H     4.243000000    -2.962000000     4.957000000
C     2.200000000    -3.283000000     4.647000000
O     2.290000000    -4.660000000     4.851000000
C     1.532000000    -5.583000000     4.235000000
C     1.676000000    -5.760000000     2.899000000
H     2.480000000    -5.336000000     2.303000000
C     0.790000000    -6.437000000     5.015000000
H     0.688000000    -6.326000000     6.092000000
C     0.136000000    -7.526000000     4.445000000
H    -0.469000000    -8.184000000     5.063000000
C     0.183000000    -7.661000000     3.049000000
H    -0.323000000    -8.437000000     2.480000000
C     0.948000000    -6.787000000     2.265000000
O     1.027000000    -7.099000000     0.915000000
C     0.574000000    -6.142000000    -0.005000000
C     1.401000000    -5.805000000    -1.091000000
H     2.373000000    -6.223000000    -1.337000000
C     0.948000000    -4.841000000    -1.973000000
O     1.709000000    -4.506000000    -3.060000000
C     1.239000000    -4.074000000    -4.280000000
C     1.623000000    -2.841000000    -4.740000000
H     2.204000000    -2.072000000    -4.237000000
C     0.531000000    -4.960000000    -5.110000000
H     0.318000000    -5.970000000    -4.767000000
C     0.267000000    -4.645000000    -6.410000000
H    -0.196000000    -5.389000000    -7.053000000
C     0.628000000    -3.378000000    -6.852000000
H     0.431000000    -3.147000000    -7.896000000
C     1.324000000    -2.474000000    -6.044000000
O     1.753000000    -1.307000000    -6.601000000
C     1.402000000    -0.104000000    -6.132000000
C     2.282000000     0.983000000    -6.257000000
H     3.259000000     0.857000000    -6.716000000
C     2.021000000     2.211000000    -5.699000000
O     2.785000000     3.252000000    -5.996000000
C     2.948000000     4.274000000    -5.111000000
C     2.347000000     5.483000000    -5.420000000
H     1.955000000     5.680000000    -6.415000000
C     2.468000000     6.546000000    -4.507000000
H     1.982000000     7.486000000    -4.756000000
C     3.193000000     6.361000000    -3.358000000
H     3.258000000     7.208000000    -2.680000000
C     3.758000000     5.125000000    -3.095000000
C     3.678000000     4.104000000    -3.949000000
H     4.170000000     3.158000000    -3.741000000
C     2.080000000    -0.004000000    -2.218000000
H     2.522000000    -0.124000000    -3.204000000
C     0.744000000    -0.256000000    -1.939000000
H     0.040000000    -0.619000000    -2.684000000
C     0.215000000     0.091000000    -0.733000000
H    -0.770000000     0.032000000    -0.539000000
C     1.021000000     0.550000000     0.253000000
H     0.647000000     0.762000000     1.252000000
C     2.376000000     0.781000000     0.029000000
H     2.957000000     1.204000000     0.843000000
C     2.888000000     0.590000000    -1.236000000
C     4.369000000     1.010000000    -1.503000000
O     5.117000000     1.064000000    -0.521000000
O     4.839000000     1.050000000    -2.622000000
O     8.283000000     2.524000000     3.743000000
H     7.508000000     1.978000000     3.608000000
H     7.937000000     3.409000000     3.854000000
O     6.693000000    -2.519000000     4.068000000
H     6.325000000    -1.851000000     3.490000000
H     6.178000000    -3.305000000     3.886000000
O     8.712000000     0.280000000    -3.279000000
H     9.204000000     0.608000000    -2.526000000
H     8.630000000     1.037000000    -3.859000000
O     6.013000000    -4.923000000    -0.020000000
H     5.315000000    -4.279000000     0.099000000
H     5.827000000    -5.324000000    -0.869000000
O     5.527000000     5.969000000    -5.851000000
H     4.833000000     5.578000000    -5.321000000
H     6.339000000     5.670000000    -5.443000000
O     5.706000000     0.255000000    -5.046000000
H     5.407000000     0.536000000    -4.181000000
H     6.444000000    -0.327000000    -4.866000000
O     7.174000000     6.003000000    -2.008000000
H     6.851000000     6.896000000    -2.130000000
H     6.387000000     5.483000000    -1.845000000
O     8.451000000    -3.264000000     0.688000000
H     8.417000000    -2.311000000     0.777000000
H     7.713000000    -3.478000000     0.118000000
O     8.671000000    -0.032000000     0.636000000
H     9.118000000     0.396000000    -0.094000000
H     8.051000000     0.625000000     0.955000000
O     6.836000000     2.859000000    -2.129000000
H     6.872000000     3.171000000    -3.033000000
H     6.304000000     2.064000000    -2.171000000
O     5.644000000     2.731000000    -6.502000000
H     6.583000000     2.915000000    -6.485000000
H     5.535000000     1.988000000    -5.909000000
O     8.743000000     3.988000000    -0.339000000
H     8.189000000     3.580000000    -1.004000000
H     8.863000000     4.887000000    -0.646000000
O     6.670000000    -3.715000000    -3.840000000
H     6.578000000    -2.940000000    -3.286000000
H     6.008000000    -4.324000000    -3.512000000
O    10.042000000     1.508000000    -1.310000000
H    10.936000000     1.564000000    -1.650000000
H     9.975000000     2.235000000    -0.692000000
O     6.531000000    -1.218000000    -2.624000000
H     7.407000000    -0.835000000    -2.590000000
H     5.947000000    -0.503000000    -2.370000000
O     6.901000000     1.975000000     1.094000000
H     7.091000000     2.724000000     0.529000000
H     6.165000000     1.535000000     0.668000000
O     3.790000000    -3.209000000     0.471000000
H     4.227000000    -2.367000000     0.603000000
H     2.882000000    -2.979000000     0.274000000
O     9.315000000     2.559000000    -4.633000000
H     8.945000000     2.455000000    -5.510000000
H     9.022000000     3.425000000    -4.351000000
O     5.429000000    -0.943000000     1.044000000
H     6.326000000    -0.723000000     0.792000000
H     4.881000000    -0.394000000     0.483000000
