215
-1458.10552
C     0.999000000    -2.719000000     3.745000000
H     0.335000000    -3.220000000     3.045000000
C     0.615000000    -1.476000000     4.306000000
C     1.569000000    -0.815000000     5.095000000
H     1.386000000     0.178000000     5.495000000
C    -0.742000000    -0.903000000     4.062000000
O    -1.777000000    -1.844000000     4.309000000
H    -0.904000000    -0.619000000     3.012000000
O    -1.048000000     0.187000000     4.957000000
C    -1.547000000     1.241000000     4.271000000
C    -0.615000000     2.243000000     3.894000000
H     0.388000000     2.085000000     4.281000000
C    -0.990000000     3.325000000     3.157000000
O     0.025000000     4.275000000     2.857000000
C    -2.326000000     3.443000000     2.833000000
C    -2.691000000     4.544000000     1.932000000
H    -3.734000000     4.823000000     2.092000000
C    -2.380000000     4.223000000     0.473000000
C    -3.382000000     3.757000000    -0.427000000
H    -4.371000000     3.616000000     0.000000000
H    -2.059000000     5.393000000     2.202000000
C    -3.313000000     2.451000000     3.143000000
H    -4.257000000     2.533000000     2.611000000
C    -2.880000000     1.308000000     3.758000000
C    -3.905000000     0.282000000     4.091000000
H    -4.934000000     0.632000000     3.986000000
H    -3.836000000     0.042000000     5.153000000
C    -3.745000000    -0.871000000     3.144000000
C    -4.631000000    -0.942000000     2.056000000
H    -5.380000000    -0.172000000     1.896000000
C    -2.799000000    -1.863000000     3.346000000
C    -2.669000000    -2.858000000     2.361000000
H    -1.913000000    -3.633000000     2.460000000
C    -3.476000000    -2.875000000     1.216000000
O    -3.117000000    -3.698000000     0.165000000
C    -2.451000000    -3.258000000    -1.049000000
C    -1.447000000    -4.278000000    -1.481000000
C    -1.018000000    -4.259000000    -2.809000000
H    -1.345000000    -3.559000000    -3.572000000
C    -0.890000000    -5.200000000    -0.578000000
H    -1.110000000    -5.180000000     0.486000000
O    -3.433000000    -2.924000000    -2.069000000
H    -1.812000000    -2.391000000    -0.822000000
C    -4.482000000    -1.935000000     1.063000000
C    -5.250000000    -1.772000000    -0.274000000
H    -6.206000000    -1.274000000    -0.098000000
H    -5.577000000    -2.756000000    -0.617000000
C    -4.553000000    -0.991000000    -1.429000000
C    -4.767000000     0.381000000    -1.557000000
H    -5.411000000     0.852000000    -0.819000000
C    -3.711000000    -1.624000000    -2.303000000
C    -3.035000000    -1.002000000    -3.293000000
H    -2.251000000    -1.463000000    -3.889000000
C    -3.133000000     0.397000000    -3.342000000
O    -2.268000000     1.041000000    -4.223000000
C    -1.081000000     1.587000000    -3.582000000
C     0.170000000     1.199000000    -4.423000000
C     0.245000000     0.005000000    -5.196000000
H    -0.618000000    -0.656000000    -5.187000000
C     1.259000000     2.057000000    -4.374000000
H     1.100000000     2.839000000    -3.636000000
O    -1.335000000     2.998000000    -3.379000000
H    -0.947000000     1.080000000    -2.615000000
C    -4.013000000     1.097000000    -2.513000000
C    -4.051000000     2.609000000    -2.566000000
H    -5.037000000     2.833000000    -2.153000000
H    -4.020000000     2.994000000    -3.586000000
C    -3.014000000     3.289000000    -1.731000000
C    -1.775000000     3.465000000    -2.181000000
C    -0.805000000     4.040000000    -1.382000000
H     0.197000000     4.176000000    -1.781000000
C    -1.094000000     4.445000000    -0.082000000
O    -0.149000000     4.957000000     0.675000000
C     0.566000000     4.128000000     1.518000000
H     0.259000000     3.124000000     1.191000000
C     2.046000000     4.294000000     1.415000000
C     2.759000000     3.606000000     2.362000000
H     2.190000000     3.199000000     3.194000000
C     2.679000000     4.721000000     0.269000000
H     2.067000000     5.162000000    -0.514000000
C     4.060000000     4.667000000     0.154000000
O     4.700000000     4.854000000    -1.046000000
C     4.849000000     4.178000000     1.232000000
H     5.932000000     4.159000000     1.136000000
C     4.180000000     3.594000000     2.348000000
O     4.949000000     3.063000000     3.319000000
C     4.574000000     2.633000000     4.550000000
C     4.452000000     1.267000000     4.637000000
H     4.518000000     0.611000000     3.774000000
C     4.585000000     3.510000000     5.634000000
H     4.595000000     4.597000000     5.623000000
C     4.414000000     2.907000000     6.907000000
H     4.350000000     3.471000000     7.834000000
C     4.127000000     1.507000000     6.986000000
H     4.011000000     1.091000000     7.983000000
C     4.070000000     0.707000000     5.833000000
O     3.862000000    -0.574000000     6.002000000
C     2.912000000    -1.274000000     5.275000000
C     3.245000000    -2.459000000     4.681000000
H     4.287000000    -2.766000000     4.688000000
C     2.306000000    -3.248000000     3.915000000
O     2.781000000    -4.347000000     3.188000000
C     1.976000000    -5.414000000     2.793000000
C     1.711000000    -5.774000000     1.476000000
H     2.139000000    -5.172000000     0.678000000
C     1.444000000    -6.242000000     3.830000000
H     1.681000000    -5.995000000     4.862000000
C     0.548000000    -7.233000000     3.508000000
H     0.129000000    -7.800000000     4.336000000
C     0.115000000    -7.483000000     2.259000000
H    -0.669000000    -8.209000000     2.062000000
C     0.798000000    -6.857000000     1.184000000
O     0.539000000    -7.152000000    -0.177000000
C    -0.084000000    -6.257000000    -1.017000000
C     0.295000000    -6.238000000    -2.301000000
H     1.076000000    -6.930000000    -2.606000000
C    -0.099000000    -5.199000000    -3.208000000
O     0.333000000    -5.363000000    -4.514000000
C     0.117000000    -4.500000000    -5.554000000
C     0.843000000    -3.326000000    -5.641000000
H     1.550000000    -3.070000000    -4.856000000
C    -0.729000000    -4.929000000    -6.580000000
H    -1.219000000    -5.897000000    -6.635000000
C    -0.841000000    -4.093000000    -7.676000000
H    -1.356000000    -4.461000000    -8.560000000
C    -0.127000000    -2.865000000    -7.766000000
H    -0.278000000    -2.309000000    -8.688000000
C     0.671000000    -2.482000000    -6.740000000
O     1.546000000    -1.395000000    -6.726000000
C     1.432000000    -0.250000000    -5.909000000
C     2.470000000     0.653000000    -5.885000000
H     3.350000000     0.313000000    -6.426000000
C     2.406000000     1.809000000    -5.077000000
O     3.541000000     2.572000000    -4.978000000
C     3.572000000     3.756000000    -4.298000000
C     2.939000000     4.903000000    -4.792000000
H     2.457000000     4.826000000    -5.763000000
C     2.792000000     6.062000000    -3.999000000
H     2.212000000     6.929000000    -4.306000000
C     3.434000000     6.083000000    -2.801000000
H     3.305000000     7.004000000    -2.240000000
C     4.071000000     4.950000000    -2.301000000
C     4.181000000     3.795000000    -3.051000000
H     4.685000000     2.928000000    -2.630000000
C     2.094000000    -0.842000000    -1.926000000
H     2.477000000    -1.354000000    -2.804000000
C     0.754000000    -0.987000000    -1.694000000
H     0.144000000    -1.540000000    -2.403000000
C     0.181000000    -0.447000000    -0.543000000
H    -0.861000000    -0.425000000    -0.415000000
C     0.959000000     0.310000000     0.400000000
H     0.447000000     0.732000000     1.261000000
C     2.323000000     0.436000000     0.086000000
H     2.888000000     1.001000000     0.823000000
C     2.871000000    -0.067000000    -1.074000000
C     4.403000000     0.087000000    -1.406000000
O     5.148000000     0.563000000    -0.582000000
O     4.773000000    -0.277000000    -2.496000000
O     9.510000000     1.161000000    -1.586000000
H     8.639000000     1.402000000    -1.269000000
H     9.525000000     1.461000000    -2.495000000
O     7.383000000    -0.974000000    -0.841000000
H     6.543000000    -0.594000000    -0.585000000
H     7.690000000    -0.419000000    -1.557000000
O     8.148000000    -5.357000000    -2.520000000
H     8.089000000    -4.411000000    -2.392000000
H     9.058000000    -5.571000000    -2.311000000
O     3.915000000    -4.166000000    -3.369000000
H     3.755000000    -5.093000000    -3.547000000
H     3.533000000    -4.019000000    -2.504000000
O     6.928000000    -0.010000000    -3.866000000
H     6.159000000     0.230000000    -3.350000000
H     6.895000000     0.566000000    -4.629000000
O     6.720000000    -2.110000000     3.303000000
H     6.392000000    -1.549000000     2.600000000
H     6.475000000    -1.652000000     4.108000000
O     6.191000000    -3.337000000     0.288000000
H     6.715000000    -2.705000000    -0.203000000
H     5.287000000    -3.045000000     0.168000000
O     9.332000000    -1.084000000    -5.612000000
H     8.681000000    -0.759000000    -4.990000000
H    10.106000000    -1.262000000    -5.078000000
O     7.109000000     2.182000000    -0.857000000
H     7.427000000     2.312000000     0.035000000
H     6.294000000     1.690000000    -0.752000000
O     5.498000000    -5.955000000    -1.623000000
H     6.284000000    -6.159000000    -2.130000000
H     5.830000000    -5.655000000    -0.777000000
O     5.826000000    -1.209000000    -7.148000000
H     5.426000000    -1.467000000    -6.317000000
H     6.058000000    -0.288000000    -7.027000000
O     8.585000000     2.344000000     1.468000000
H     8.780000000     2.465000000     2.397000000
H     9.407000000     2.032000000     1.089000000
O     4.663000000    -1.632000000    -4.697000000
H     4.251000000    -2.445000000    -4.406000000
H     4.923000000    -1.192000000    -3.888000000
O     6.259000000     0.389000000     1.848000000
H     5.885000000     0.311000000     0.970000000
H     6.914000000     1.083000000     1.768000000
O     3.598000000    -2.635000000     0.969000000
H     3.034000000    -1.895000000     1.193000000
H     3.570000000    -3.200000000     1.741000000
O     6.477000000     1.724000000    -5.656000000
H     5.708000000     2.160000000    -5.288000000
H     6.549000000     2.075000000    -6.544000000
O     7.721000000     4.119000000    -3.278000000
H     8.391000000     3.452000000    -3.427000000
H     7.238000000     3.806000000    -2.513000000
O     9.792000000    -1.070000000     0.529000000
H     8.975000000    -1.320000000     0.098000000
H    10.071000000    -0.276000000     0.072000000
O     6.881000000    -3.032000000    -2.914000000
H     6.658000000    -2.127000000    -2.692000000
H     6.058000000    -3.412000000    -3.222000000
