215
-1473.64028
C     1.059000000    -2.420000000     3.687000000
H     0.390000000    -3.114000000     3.184000000
C     0.546000000    -1.327000000     4.381000000
C     1.425000000    -0.451000000     5.137000000
H     1.118000000     0.449000000     5.663000000
C    -0.909000000    -0.914000000     4.059000000
O    -1.764000000    -2.013000000     4.119000000
H    -0.934000000    -0.523000000     3.031000000
O    -1.345000000     0.217000000     4.829000000
C    -1.863000000     1.262000000     4.129000000
C    -0.999000000     2.268000000     3.860000000
H    -0.021000000     2.219000000     4.332000000
C    -1.505000000     3.282000000     3.013000000
O    -0.664000000     4.274000000     2.684000000
C    -2.766000000     3.205000000     2.462000000
C    -3.317000000     4.304000000     1.564000000
H    -4.398000000     4.353000000     1.709000000
C    -2.917000000     3.991000000     0.090000000
C    -3.726000000     3.229000000    -0.773000000
H    -4.755000000     3.065000000    -0.463000000
H    -3.025000000     5.284000000     1.947000000
C    -3.550000000     2.140000000     2.713000000
H    -4.487000000     2.007000000     2.179000000
C    -3.120000000     1.071000000     3.500000000
C    -4.080000000    -0.140000000     3.871000000
H    -5.094000000     0.252000000     3.759000000
H    -4.029000000    -0.391000000     4.933000000
C    -3.822000000    -1.321000000     2.896000000
C    -4.625000000    -1.488000000     1.741000000
H    -5.485000000    -0.860000000     1.524000000
C    -2.681000000    -2.165000000     3.073000000
C    -2.335000000    -3.082000000     2.108000000
H    -1.442000000    -3.666000000     2.316000000
C    -3.113000000    -3.251000000     0.932000000
O    -2.703000000    -4.090000000    -0.012000000
C    -1.925000000    -3.739000000    -1.184000000
C    -0.923000000    -4.812000000    -1.522000000
C    -0.467000000    -4.869000000    -2.866000000
H    -0.962000000    -4.254000000    -3.613000000
C    -0.315000000    -5.618000000    -0.518000000
H    -0.727000000    -5.495000000     0.481000000
O    -2.810000000    -3.510000000    -2.275000000
H    -1.289000000    -2.880000000    -0.922000000
C    -4.214000000    -2.377000000     0.739000000
C    -4.982000000    -2.418000000    -0.562000000
H    -6.034000000    -2.146000000    -0.449000000
H    -5.109000000    -3.460000000    -0.861000000
C    -4.306000000    -1.621000000    -1.671000000
C    -4.613000000    -0.278000000    -1.901000000
H    -5.422000000     0.156000000    -1.318000000
C    -3.261000000    -2.206000000    -2.421000000
C    -2.595000000    -1.465000000    -3.422000000
H    -1.903000000    -2.007000000    -4.062000000
C    -2.840000000    -0.098000000    -3.534000000
O    -2.002000000     0.638000000    -4.300000000
C    -0.954000000     1.300000000    -3.619000000
C     0.352000000     1.198000000    -4.360000000
C     0.592000000     0.004000000    -5.068000000
H    -0.189000000    -0.751000000    -5.082000000
C     1.373000000     2.148000000    -4.269000000
H     1.106000000     3.083000000    -3.782000000
O    -1.345000000     2.714000000    -3.504000000
H    -0.928000000     0.954000000    -2.575000000
C    -3.875000000     0.479000000    -2.818000000
C    -4.121000000     1.970000000    -2.941000000
H    -5.165000000     2.018000000    -2.627000000
H    -4.028000000     2.283000000    -3.983000000
C    -3.267000000     2.828000000    -2.057000000
C    -2.025000000     3.219000000    -2.427000000
C    -1.168000000     4.018000000    -1.566000000
H    -0.151000000     4.272000000    -1.854000000
C    -1.661000000     4.396000000    -0.323000000
O    -0.758000000     4.930000000     0.568000000
C     0.062000000     4.153000000     1.441000000
H     0.142000000     3.101000000     1.130000000
C     1.511000000     4.697000000     1.589000000
C     2.181000000     4.552000000     2.773000000
H     1.535000000     4.203000000     3.575000000
C     2.221000000     4.984000000     0.467000000
H     1.754000000     4.914000000    -0.512000000
C     3.621000000     5.168000000     0.474000000
O     4.393000000     5.208000000    -0.602000000
C     4.320000000     5.040000000     1.673000000
H     5.404000000     4.966000000     1.648000000
C     3.586000000     4.705000000     2.815000000
O     4.261000000     4.557000000     4.016000000
C     3.811000000     3.682000000     4.980000000
C     3.925000000     2.258000000     4.760000000
H     4.431000000     1.837000000     3.895000000
C     3.234000000     4.161000000     6.174000000
H     2.971000000     5.215000000     6.234000000
C     2.854000000     3.286000000     7.165000000
H     2.439000000     3.619000000     8.113000000
C     3.059000000     1.915000000     6.990000000
H     2.747000000     1.251000000     7.793000000
C     3.551000000     1.374000000     5.798000000
O     3.729000000     0.071000000     5.689000000
C     2.790000000    -0.793000000     5.170000000
C     3.289000000    -1.862000000     4.464000000
H     4.356000000    -2.037000000     4.575000000
C     2.401000000    -2.671000000     3.711000000
O     2.859000000    -3.869000000     3.149000000
C     2.114000000    -5.037000000     2.820000000
C     2.030000000    -5.642000000     1.593000000
H     2.605000000    -5.282000000     0.743000000
C     1.342000000    -5.598000000     3.869000000
H     1.398000000    -5.086000000     4.826000000
C     0.465000000    -6.649000000     3.601000000
H    -0.098000000    -7.127000000     4.399000000
C     0.496000000    -7.268000000     2.374000000
H    -0.199000000    -8.094000000     2.246000000
C     1.308000000    -6.749000000     1.343000000
O     1.313000000    -7.269000000     0.043000000
C     0.670000000    -6.552000000    -0.897000000
C     1.164000000    -6.567000000    -2.202000000
H     2.026000000    -7.186000000    -2.440000000
C     0.573000000    -5.741000000    -3.200000000
O     0.980000000    -5.775000000    -4.542000000
C     0.881000000    -4.735000000    -5.467000000
C     1.494000000    -3.484000000    -5.224000000
H     2.084000000    -3.261000000    -4.339000000
C     0.307000000    -5.019000000    -6.657000000
H    -0.193000000    -5.971000000    -6.813000000
C     0.269000000    -4.045000000    -7.694000000
H    -0.180000000    -4.269000000    -8.659000000
C     0.864000000    -2.760000000    -7.508000000
H     1.063000000    -2.006000000    -8.265000000
C     1.461000000    -2.525000000    -6.292000000
O     2.212000000    -1.452000000    -6.231000000
C     1.843000000    -0.248000000    -5.619000000
C     2.906000000     0.698000000    -5.468000000
H     3.868000000     0.487000000    -5.930000000
C     2.646000000     1.903000000    -4.857000000
O     3.665000000     2.833000000    -4.722000000
C     3.611000000     4.004000000    -4.032000000
C     3.038000000     5.124000000    -4.594000000
H     2.637000000     5.142000000    -5.604000000
C     2.839000000     6.228000000    -3.827000000
H     2.356000000     7.119000000    -4.221000000
C     3.245000000     6.305000000    -2.512000000
H     3.044000000     7.226000000    -1.970000000
C     3.865000000     5.174000000    -1.929000000
C     3.925000000     3.999000000    -2.660000000
H     4.468000000     3.141000000    -2.272000000
C     1.823000000     0.030000000    -1.286000000
H     1.925000000    -0.396000000    -2.281000000
C     0.604000000     0.087000000    -0.612000000
H    -0.320000000    -0.285000000    -1.047000000
C     0.471000000     0.588000000     0.670000000
H    -0.492000000     0.714000000     1.115000000
C     1.645000000     0.958000000     1.337000000
H     1.441000000     1.351000000     2.330000000
C     2.958000000     0.901000000     0.725000000
H     3.816000000     1.266000000     1.284000000
C     3.052000000     0.444000000    -0.626000000
C     4.405000000     0.584000000    -1.321000000
O     5.289000000     1.086000000    -0.735000000
O     4.619000000    -0.016000000    -2.345000000
O    10.345000000    -0.244000000    -0.513000000
H    10.162000000    -1.163000000    -0.315000000
H     9.494000000     0.190000000    -0.443000000
O     8.828000000    -2.653000000    -1.283000000
H     8.342000000    -3.460000000    -1.112000000
H     8.167000000    -2.039000000    -1.605000000
O     8.571000000    -1.653000000     2.882000000
H     7.917000000    -1.631000000     2.183000000
H     8.208000000    -1.092000000     3.568000000
O     7.784000000    -0.014000000    -1.837000000
H     6.908000000    -0.043000000    -1.452000000
H     7.695000000     0.569000000    -2.591000000
O     3.748000000    -4.122000000    -1.955000000
H     4.284000000    -4.878000000    -1.714000000
H     3.273000000    -3.901000000    -1.154000000
O     6.525000000    -4.384000000     2.852000000
H     6.482000000    -3.754000000     2.132000000
H     7.422000000    -4.717000000     2.824000000
O     6.274000000     0.822000000    -4.151000000
H     5.491000000     0.629000000    -3.635000000
H     6.375000000     0.063000000    -4.725000000
O     7.226000000     5.574000000    -0.865000000
H     6.284000000     5.643000000    -0.706000000
H     7.392000000     4.633000000    -0.917000000
O     6.987000000     0.009000000     4.277000000
H     6.418000000     0.624000000     3.816000000
H     6.494000000    -0.232000000     5.062000000
O     5.940000000    -2.500000000    -1.856000000
H     5.280000000    -3.191000000    -1.806000000
H     5.434000000    -1.688000000    -1.896000000
O     6.992000000     2.976000000    -0.734000000
H     7.546000000     2.830000000     0.033000000
H     6.363000000     2.255000000    -0.716000000
O     4.929000000    -2.773000000    -7.106000000
H     4.507000000    -2.281000000    -6.401000000
H     5.712000000    -2.265000000    -7.316000000
O     8.656000000     2.928000000     1.664000000
H     8.912000000     3.811000000     1.930000000
H     9.478000000     2.506000000     1.414000000
O     4.707000000    -1.873000000    -4.549000000
H     4.731000000    -2.721000000    -4.106000000
H     4.329000000    -1.275000000    -3.904000000
O     6.068000000     1.603000000     2.105000000
H     5.832000000     1.357000000     1.211000000
H     6.913000000     2.044000000     2.017000000
O     2.334000000    -2.740000000     0.164000000
H     1.827000000    -1.949000000    -0.016000000
H     2.138000000    -2.947000000     1.078000000
O     7.871000000     3.216000000    -3.348000000
H     7.479000000     2.410000000    -3.684000000
H     7.531000000     3.294000000    -2.457000000
O     6.389000000    -2.176000000     1.077000000
H     5.794000000    -1.434000000     1.186000000
H     6.358000000    -2.372000000     0.140000000
O     7.819000000    -2.035000000    -4.594000000
H     7.254000000    -1.988000000    -3.822000000
H     8.705000000    -1.933000000    -4.248000000
