215
-1454.42043
C     1.225000000    -4.168000000     3.177000000
H     0.510000000    -4.519000000     2.438000000
C     1.000000000    -3.101000000     4.019000000
C     2.045000000    -2.615000000     4.835000000
H     1.886000000    -1.816000000     5.555000000
C    -0.337000000    -2.252000000     3.902000000
O    -1.538000000    -3.011000000     3.870000000
H    -0.298000000    -1.819000000     2.892000000
O    -0.401000000    -1.196000000     4.980000000
C    -0.832000000     0.067000000     4.581000000
C     0.150000000     1.047000000     4.367000000
H     1.192000000     0.761000000     4.253000000
C    -0.209000000     2.306000000     3.880000000
O     0.783000000     3.242000000     3.524000000
C    -1.577000000     2.552000000     3.674000000
C    -1.992000000     3.867000000     3.120000000
H    -3.034000000     4.113000000     3.336000000
C    -1.954000000     4.131000000     1.583000000
C    -3.092000000     3.896000000     0.751000000
H    -4.071000000     3.752000000     1.201000000
H    -1.333000000     4.577000000     3.624000000
C    -2.557000000     1.583000000     3.908000000
H    -3.570000000     1.963000000     3.805000000
C    -2.175000000     0.329000000     4.406000000
C    -3.141000000    -0.746000000     4.752000000
H    -4.092000000    -0.261000000     4.982000000
H    -2.877000000    -1.339000000     5.630000000
C    -3.356000000    -1.546000000     3.484000000
C    -4.231000000    -1.071000000     2.505000000
H    -4.929000000    -0.248000000     2.634000000
C    -2.523000000    -2.581000000     3.063000000
C    -2.693000000    -3.287000000     1.875000000
H    -2.134000000    -4.215000000     1.782000000
C    -3.615000000    -2.792000000     0.934000000
O    -3.549000000    -3.467000000    -0.273000000
C    -2.846000000    -2.753000000    -1.368000000
C    -1.968000000    -3.664000000    -2.245000000
C    -1.779000000    -3.424000000    -3.617000000
H    -2.292000000    -2.588000000    -4.086000000
C    -1.216000000    -4.718000000    -1.605000000
H    -1.294000000    -4.843000000    -0.527000000
O    -3.813000000    -2.043000000    -2.173000000
H    -2.169000000    -2.048000000    -0.864000000
C    -4.341000000    -1.626000000     1.187000000
C    -5.330000000    -1.030000000     0.226000000
H    -6.126000000    -0.493000000     0.745000000
H    -5.833000000    -1.915000000    -0.171000000
C    -4.665000000    -0.156000000    -0.826000000
C    -4.746000000     1.261000000    -0.743000000
H    -5.285000000     1.707000000     0.089000000
C    -4.007000000    -0.657000000    -1.938000000
C    -3.360000000     0.141000000    -2.842000000
H    -2.905000000    -0.284000000    -3.734000000
C    -3.355000000     1.486000000    -2.612000000
O    -2.590000000     2.242000000    -3.538000000
C    -1.373000000     2.801000000    -3.077000000
C    -0.337000000     2.744000000    -4.223000000
C    -0.482000000     1.805000000    -5.229000000
H    -1.365000000     1.172000000    -5.241000000
C     0.842000000     3.535000000    -4.155000000
H     0.817000000     4.301000000    -3.384000000
O    -1.627000000     4.188000000    -2.537000000
H    -0.965000000     2.167000000    -2.276000000
C    -4.158000000     2.086000000    -1.707000000
C    -4.199000000     3.599000000    -1.466000000
H    -5.130000000     3.940000000    -1.009000000
H    -4.141000000     4.096000000    -2.437000000
C    -2.977000000     3.919000000    -0.590000000
C    -1.826000000     4.311000000    -1.210000000
C    -0.756000000     4.661000000    -0.469000000
H     0.203000000     4.877000000    -0.933000000
C    -0.776000000     4.497000000     0.922000000
O     0.444000000     4.561000000     1.599000000
C     1.052000000     3.400000000     2.117000000
H     0.604000000     2.595000000     1.516000000
C     2.541000000     3.357000000     1.788000000
C     3.274000000     2.447000000     2.475000000
H     2.771000000     1.948000000     3.299000000
C     3.108000000     4.015000000     0.724000000
H     2.432000000     4.539000000     0.053000000
C     4.533000000     3.883000000     0.443000000
O     5.227000000     4.461000000    -0.573000000
C     5.236000000     3.033000000     1.288000000
H     6.300000000     2.868000000     1.136000000
C     4.607000000     2.343000000     2.303000000
O     5.425000000     1.537000000     3.119000000
C     4.944000000     0.906000000     4.215000000
C     4.824000000    -0.468000000     4.169000000
H     4.893000000    -0.986000000     3.216000000
C     4.740000000     1.587000000     5.376000000
H     4.678000000     2.669000000     5.466000000
C     4.312000000     0.940000000     6.544000000
H     3.995000000     1.470000000     7.439000000
C     4.228000000    -0.436000000     6.417000000
H     3.867000000    -0.867000000     7.347000000
C     4.513000000    -1.170000000     5.301000000
O     4.443000000    -2.525000000     5.235000000
C     3.327000000    -3.135000000     4.673000000
C     3.503000000    -4.231000000     3.866000000
H     4.483000000    -4.684000000     3.741000000
C     2.455000000    -4.782000000     3.151000000
O     2.766000000    -5.823000000     2.327000000
C     1.817000000    -6.508000000     1.584000000
C     1.693000000    -6.223000000     0.236000000
H     2.336000000    -5.509000000    -0.272000000
C     1.023000000    -7.473000000     2.171000000
H     1.271000000    -7.820000000     3.171000000
C    -0.045000000    -8.007000000     1.463000000
H    -0.604000000    -8.799000000     1.953000000
C    -0.260000000    -7.674000000     0.161000000
H    -1.101000000    -8.086000000    -0.392000000
C     0.615000000    -6.742000000    -0.497000000
O     0.518000000    -6.439000000    -1.771000000
C    -0.310000000    -5.467000000    -2.315000000
C    -0.073000000    -5.144000000    -3.653000000
H     0.536000000    -5.795000000    -4.274000000
C    -0.718000000    -4.123000000    -4.309000000
O    -0.485000000    -3.892000000    -5.631000000
C    -0.820000000    -2.722000000    -6.300000000
C     0.059000000    -1.635000000    -6.303000000
H     1.088000000    -1.721000000    -5.966000000
C    -2.062000000    -2.680000000    -6.840000000
H    -2.683000000    -3.572000000    -6.834000000
C    -2.431000000    -1.572000000    -7.569000000
H    -3.453000000    -1.491000000    -7.931000000
C    -1.558000000    -0.469000000    -7.598000000
H    -1.832000000     0.509000000    -7.987000000
C    -0.307000000    -0.521000000    -7.006000000
O     0.568000000     0.556000000    -7.036000000
C     0.588000000     1.559000000    -6.110000000
C     1.779000000     2.209000000    -5.950000000
H     2.644000000     1.981000000    -6.567000000
C     1.906000000     3.246000000    -5.037000000
O     3.143000000     3.878000000    -5.064000000
C     3.567000000     4.651000000    -3.921000000
C     3.333000000     6.017000000    -4.023000000
H     2.836000000     6.389000000    -4.915000000
C     3.710000000     6.862000000    -2.980000000
H     3.532000000     7.933000000    -2.927000000
C     4.253000000     6.320000000    -1.814000000
H     4.677000000     6.953000000    -1.038000000
C     4.564000000     4.932000000    -1.721000000
C     4.226000000     4.143000000    -2.802000000
H     4.364000000     3.105000000    -2.511000000
C     1.195000000     0.131000000    -1.623000000
H     1.128000000     0.180000000    -2.706000000
C    -0.056000000     0.038000000    -1.030000000
H    -0.971000000    -0.082000000    -1.605000000
C    -0.212000000     0.054000000     0.332000000
H    -1.148000000    -0.148000000     0.898000000
C     0.901000000     0.064000000     1.153000000
H     0.844000000     0.069000000     2.238000000
C     2.169000000    -0.017000000     0.595000000
H     3.010000000    -0.071000000     1.282000000
C     2.323000000    -0.017000000    -0.814000000
C     3.708000000    -0.204000000    -1.430000000
O     4.641000000    -0.434000000    -0.696000000
O     3.918000000    -0.400000000    -2.647000000
O     6.226000000    -2.656000000    -0.990000000
H     5.570000000    -1.977000000    -1.146000000
H     7.044000000    -2.277000000    -1.313000000
O     5.233000000    -6.986000000    -0.797000000
H     4.976000000    -6.154000000    -1.196000000
H     4.471000000    -7.553000000    -0.915000000
O     6.153000000    -0.476000000    -5.538000000
H     6.344000000    -1.360000000    -5.853000000
H     6.989000000    -0.156000000    -5.200000000
O     8.771000000    -2.355000000    -2.697000000
H     9.300000000    -1.562000000    -2.786000000
H     9.052000000    -2.738000000    -1.866000000
O     3.025000000    -2.709000000    -3.471000000
H     3.472000000    -1.882000000    -3.292000000
H     2.487000000    -2.529000000    -4.242000000
O     4.259000000    -4.653000000    -1.982000000
H     4.915000000    -4.133000000    -1.517000000
H     3.830000000    -4.029000000    -2.567000000
O     6.288000000     1.376000000    -2.344000000
H     5.671000000     0.660000000    -2.195000000
H     6.510000000     1.312000000    -3.273000000
O     8.063000000     3.321000000    -2.262000000
H     7.433000000     2.600000000    -2.260000000
H     8.889000000     2.919000000    -1.994000000
O     2.809000000    -0.780000000    -8.246000000
H     3.608000000    -0.256000000    -8.184000000
H     2.304000000    -0.541000000    -7.469000000
O     4.306000000    -2.766000000     1.014000000
H     4.708000000    -2.003000000     0.599000000
H     3.639000000    -3.054000000     0.391000000
O     6.724000000    -3.865000000     1.621000000
H     6.762000000    -4.223000000     0.734000000
H     5.856000000    -3.464000000     1.680000000
O     6.868000000     0.364000000     0.930000000
H     6.214000000     0.034000000     0.313000000
H     6.360000000     0.847000000     1.582000000
O     8.197000000     1.001000000    -4.236000000
H     8.393000000     1.377000000    -5.094000000
H     9.013000000     1.090000000    -3.743000000
O     7.926000000    -3.368000000    -5.340000000
H     8.131000000    -3.124000000    -4.437000000
H     8.682000000    -3.882000000    -5.626000000
O     9.361000000     1.211000000    -0.545000000
H     9.572000000     0.622000000    -1.269000000
H     8.547000000     0.862000000    -0.182000000
O     3.443000000    -0.601000000    -5.422000000
H     4.325000000    -0.771000000    -5.755000000
H     3.562000000    -0.475000000    -4.481000000
O     8.393000000    -1.487000000     2.593000000
H     8.114000000    -2.397000000     2.491000000
H     7.874000000    -1.004000000     1.949000000
O     0.382000000    -2.891000000     0.329000000
H     0.451000000    -1.947000000     0.190000000
H     0.833000000    -3.277000000    -0.422000000
O     5.319000000    -4.251000000    -5.428000000
H     6.248000000    -4.075000000    -5.279000000
H     4.962000000    -4.406000000    -4.553000000
