215
-1472.36808
C     0.692000000    -3.259000000     3.654000000
H    -0.023000000    -3.654000000     2.937000000
C     0.436000000    -2.063000000     4.340000000
C     1.427000000    -1.479000000     5.076000000
H     1.328000000    -0.494000000     5.527000000
C    -0.843000000    -1.313000000     4.002000000
O    -2.053000000    -2.167000000     4.078000000
H    -0.719000000    -0.996000000     2.957000000
O    -1.160000000    -0.194000000     4.863000000
C    -1.416000000     1.012000000     4.272000000
C    -0.367000000     1.851000000     3.954000000
H     0.627000000     1.613000000     4.326000000
C    -0.581000000     3.044000000     3.283000000
O     0.520000000     3.733000000     2.935000000
C    -1.858000000     3.295000000     2.747000000
C    -2.064000000     4.579000000     1.969000000
H    -3.103000000     4.848000000     2.170000000
C    -1.817000000     4.460000000     0.492000000
C    -2.940000000     4.176000000    -0.366000000
H    -3.914000000     4.132000000     0.114000000
H    -1.494000000     5.416000000     2.379000000
C    -2.922000000     2.416000000     2.927000000
H    -3.882000000     2.628000000     2.465000000
C    -2.744000000     1.319000000     3.801000000
C    -3.838000000     0.379000000     4.095000000
H    -4.800000000     0.894000000     4.119000000
H    -3.781000000    -0.127000000     5.061000000
C    -3.796000000    -0.722000000     3.071000000
C    -4.575000000    -0.507000000     1.910000000
H    -5.129000000     0.424000000     1.821000000
C    -3.007000000    -1.872000000     3.158000000
C    -3.016000000    -2.748000000     2.080000000
H    -2.249000000    -3.511000000     2.186000000
C    -3.719000000    -2.509000000     0.921000000
O    -3.518000000    -3.282000000    -0.175000000
C    -2.628000000    -2.853000000    -1.173000000
C    -1.660000000    -3.947000000    -1.601000000
C    -0.890000000    -3.792000000    -2.755000000
H    -0.954000000    -2.874000000    -3.334000000
C    -1.538000000    -5.132000000    -0.804000000
H    -2.101000000    -5.267000000     0.116000000
O    -3.449000000    -2.372000000    -2.252000000
H    -2.155000000    -1.951000000    -0.757000000
C    -4.601000000    -1.400000000     0.833000000
C    -5.345000000    -1.067000000    -0.448000000
H    -6.226000000    -0.447000000    -0.273000000
H    -5.808000000    -1.979000000    -0.833000000
C    -4.516000000    -0.338000000    -1.477000000
C    -4.606000000     1.047000000    -1.522000000
H    -5.137000000     1.615000000    -0.763000000
C    -3.744000000    -0.991000000    -2.423000000
C    -3.001000000    -0.329000000    -3.326000000
H    -2.320000000    -0.892000000    -3.960000000
C    -3.137000000     1.041000000    -3.415000000
O    -2.262000000     1.682000000    -4.274000000
C    -1.005000000     2.173000000    -3.707000000
C     0.259000000     1.899000000    -4.591000000
C     0.280000000     0.737000000    -5.374000000
H    -0.572000000     0.065000000    -5.438000000
C     1.372000000     2.745000000    -4.603000000
H     1.271000000     3.694000000    -4.082000000
O    -1.195000000     3.567000000    -3.511000000
H    -0.815000000     1.717000000    -2.723000000
C    -3.906000000     1.759000000    -2.465000000
C    -3.937000000     3.298000000    -2.477000000
H    -4.839000000     3.680000000    -1.996000000
H    -3.781000000     3.626000000    -3.507000000
C    -2.731000000     3.846000000    -1.667000000
C    -1.468000000     3.994000000    -2.245000000
C    -0.392000000     4.443000000    -1.482000000
H     0.599000000     4.471000000    -1.928000000
C    -0.559000000     4.550000000    -0.074000000
O     0.555000000     4.700000000     0.806000000
C     0.949000000     3.584000000     1.555000000
H     0.498000000     2.655000000     1.175000000
C     2.454000000     3.433000000     1.492000000
C     3.220000000     3.000000000     2.607000000
H     2.706000000     2.801000000     3.544000000
C     3.103000000     3.683000000     0.231000000
H     2.529000000     4.003000000    -0.635000000
C     4.484000000     3.401000000     0.108000000
O     5.144000000     3.470000000    -1.043000000
C     5.131000000     2.893000000     1.194000000
H     6.178000000     2.655000000     1.025000000
C     4.512000000     2.688000000     2.433000000
O     5.294000000     2.291000000     3.477000000
C     4.783000000     1.768000000     4.651000000
C     4.531000000     0.383000000     4.757000000
H     4.601000000    -0.157000000     3.815000000
C     4.596000000     2.526000000     5.814000000
H     4.577000000     3.611000000     5.754000000
C     4.093000000     1.927000000     6.950000000
H     3.940000000     2.608000000     7.784000000
C     3.825000000     0.595000000     7.015000000
H     3.443000000     0.113000000     7.911000000
C     4.040000000    -0.257000000     5.946000000
O     3.759000000    -1.591000000     5.928000000
C     2.692000000    -2.153000000     5.272000000
C     2.881000000    -3.368000000     4.600000000
H     3.809000000    -3.932000000     4.649000000
C     1.880000000    -3.969000000     3.872000000
O     2.065000000    -5.305000000     3.496000000
C     1.105000000    -6.092000000     2.957000000
C     1.037000000    -6.242000000     1.547000000
H     1.650000000    -5.603000000     0.916000000
C     0.272000000    -6.801000000     3.797000000
H     0.297000000    -6.660000000     4.874000000
C    -0.695000000    -7.655000000     3.248000000
H    -1.394000000    -8.190000000     3.886000000
C    -0.821000000    -7.751000000     1.891000000
H    -1.521000000    -8.437000000     1.421000000
C    -0.056000000    -6.984000000     1.006000000
O    -0.324000000    -7.133000000    -0.313000000
C    -0.610000000    -6.111000000    -1.176000000
C     0.058000000    -5.964000000    -2.423000000
H     0.770000000    -6.731000000    -2.718000000
C    -0.174000000    -4.851000000    -3.262000000
O     0.552000000    -4.708000000    -4.421000000
C     0.117000000    -3.861000000    -5.396000000
C     0.904000000    -2.761000000    -5.718000000
H     1.875000000    -2.669000000    -5.239000000
C    -1.100000000    -3.976000000    -6.072000000
H    -1.747000000    -4.824000000    -5.862000000
C    -1.531000000    -3.008000000    -7.034000000
H    -2.491000000    -3.180000000    -7.514000000
C    -0.696000000    -1.920000000    -7.334000000
H    -0.980000000    -1.206000000    -8.104000000
C     0.546000000    -1.833000000    -6.693000000
O     1.333000000    -0.703000000    -7.054000000
C     1.366000000     0.410000000    -6.204000000
C     2.482000000     1.222000000    -6.123000000
H     3.307000000     1.036000000    -6.806000000
C     2.497000000     2.406000000    -5.340000000
O     3.582000000     3.282000000    -5.506000000
C     4.046000000     4.015000000    -4.416000000
C     3.824000000     5.421000000    -4.356000000
H     3.257000000     5.854000000    -5.176000000
C     4.076000000     6.173000000    -3.226000000
H     3.914000000     7.233000000    -3.403000000
C     4.502000000     5.532000000    -2.052000000
H     4.582000000     6.058000000    -1.104000000
C     4.737000000     4.172000000    -2.139000000
C     4.509000000     3.367000000    -3.276000000
H     4.530000000     2.289000000    -3.137000000
C     2.318000000    -0.250000000    -2.016000000
H     2.693000000    -0.336000000    -3.032000000
C     0.927000000    -0.387000000    -1.871000000
H     0.211000000    -0.560000000    -2.671000000
C     0.327000000    -0.328000000    -0.636000000
H    -0.737000000    -0.417000000    -0.505000000
C     1.070000000    -0.153000000     0.541000000
H     0.508000000    -0.243000000     1.467000000
C     2.431000000     0.038000000     0.413000000
H     2.910000000     0.159000000     1.381000000
C     3.097000000     0.000000000    -0.875000000
C     4.605000000    -0.005000000    -0.881000000
O     5.143000000    -0.146000000     0.165000000
O     5.174000000    -0.077000000    -1.930000000
O     7.495000000    -1.428000000    -1.184000000
H     6.573000000    -1.342000000    -1.427000000
H     7.963000000    -1.430000000    -2.019000000
O     7.259000000    -4.014000000    -2.460000000
H     6.922000000    -4.910000000    -2.442000000
H     8.209000000    -4.114000000    -2.412000000
O     2.968000000    -4.551000000    -2.934000000
H     2.363000000    -4.916000000    -3.580000000
H     3.657000000    -4.141000000    -3.456000000
O     4.011000000    -6.128000000    -1.022000000
H     3.599000000    -5.487000000    -1.602000000
H     4.394000000    -5.603000000    -0.320000000
O     6.309000000     0.581000000    -4.445000000
H     7.022000000    -0.057000000    -4.407000000
H     5.926000000     0.565000000    -3.568000000
O     6.694000000    -1.864000000     3.312000000
H     5.781000000    -2.149000000     3.350000000
H     6.813000000    -1.560000000     2.412000000
O     5.279000000    -2.624000000    -6.194000000
H     5.137000000    -2.615000000    -5.248000000
H     5.971000000    -1.978000000    -6.339000000
O     4.293000000    -2.239000000     1.507000000
H     4.616000000    -1.466000000     1.045000000
H     3.443000000    -2.420000000     1.107000000
O     7.710000000    -1.890000000    -3.981000000
H     7.757000000    -1.987000000    -4.932000000
H     7.885000000    -2.769000000    -3.643000000
O     4.656000000    -4.828000000     1.457000000
H     3.793000000    -5.073000000     1.791000000
H     4.694000000    -3.878000000     1.566000000
O     7.371000000     1.729000000    -1.298000000
H     7.027000000     2.527000000    -1.699000000
H     6.638000000     1.114000000    -1.321000000
O     6.740000000    -0.351000000    -7.054000000
H     6.797000000     0.316000000    -7.738000000
H     6.346000000     0.102000000    -6.309000000
O    10.046000000     1.455000000     0.038000000
H     9.123000000     1.220000000    -0.060000000
H    10.506000000     0.615000000     0.051000000
O     4.852000000    -2.392000000    -3.536000000
H     5.543000000    -2.859000000    -3.067000000
H     4.848000000    -1.517000000    -3.148000000
O     7.546000000    -0.158000000     1.226000000
H     6.676000000     0.221000000     1.098000000
H     7.775000000    -0.527000000     0.373000000
O     1.817000000    -3.190000000    -0.127000000
H     1.248000000    -2.571000000    -0.584000000
H     2.057000000    -3.832000000    -0.795000000
O     7.106000000     3.361000000    -5.449000000
H     7.377000000     4.093000000    -4.895000000
H     6.246000000     3.111000000    -5.111000000
O     9.583000000     1.063000000    -2.980000000
H     9.055000000     1.259000000    -2.206000000
H    10.167000000     1.816000000    -3.069000000
O     9.309000000    -3.439000000     0.572000000
H    10.050000000    -3.835000000     0.114000000
H     9.040000000    -2.713000000     0.010000000
