215
-1470.14781
C     0.788000000    -3.330000000     4.156000000
H    -0.065000000    -3.982000000     3.990000000
C     0.679000000    -1.973000000     4.257000000
C     1.831000000    -1.199000000     4.550000000
H     1.747000000    -0.117000000     4.622000000
C    -0.629000000    -1.255000000     3.935000000
O    -1.718000000    -2.163000000     4.164000000
H    -0.644000000    -0.976000000     2.871000000
O    -0.773000000    -0.148000000     4.740000000
C    -1.258000000     0.987000000     4.084000000
C    -0.375000000     1.998000000     3.770000000
H     0.681000000     1.946000000     4.022000000
C    -0.831000000     3.183000000     3.162000000
O     0.083000000     4.088000000     2.708000000
C    -2.183000000     3.331000000     2.852000000
C    -2.580000000     4.510000000     2.000000000
H    -3.642000000     4.679000000     2.193000000
C    -2.375000000     4.244000000     0.484000000
C    -3.390000000     3.704000000    -0.287000000
H    -4.382000000     3.420000000     0.057000000
H    -2.038000000     5.395000000     2.339000000
C    -3.027000000     2.227000000     3.111000000
H    -4.095000000     2.340000000     2.939000000
C    -2.589000000     1.080000000     3.773000000
C    -3.563000000    -0.065000000     4.065000000
H    -4.579000000     0.247000000     4.317000000
H    -3.224000000    -0.438000000     5.034000000
C    -3.570000000    -1.132000000     3.059000000
C    -4.500000000    -1.096000000     1.964000000
H    -5.207000000    -0.281000000     1.838000000
C    -2.644000000    -2.166000000     3.131000000
C    -2.619000000    -3.137000000     2.144000000
H    -1.914000000    -3.964000000     2.151000000
C    -3.477000000    -3.019000000     1.009000000
O    -3.237000000    -3.856000000    -0.066000000
C    -2.492000000    -3.245000000    -1.123000000
C    -1.363000000    -4.122000000    -1.624000000
C    -0.921000000    -4.096000000    -2.944000000
H    -1.344000000    -3.405000000    -3.669000000
C    -0.664000000    -4.939000000    -0.761000000
H    -0.898000000    -4.957000000     0.300000000
O    -3.425000000    -2.834000000    -2.112000000
H    -2.019000000    -2.312000000    -0.782000000
C    -4.450000000    -1.994000000     0.931000000
C    -5.350000000    -1.770000000    -0.216000000
H    -6.291000000    -1.284000000     0.050000000
H    -5.681000000    -2.743000000    -0.584000000
C    -4.799000000    -0.905000000    -1.318000000
C    -4.955000000     0.474000000    -1.378000000
H    -5.589000000     0.996000000    -0.665000000
C    -3.813000000    -1.502000000    -2.188000000
C    -3.142000000    -0.759000000    -3.098000000
H    -2.401000000    -1.293000000    -3.687000000
C    -3.359000000     0.543000000    -3.221000000
O    -2.603000000     1.356000000    -4.088000000
C    -1.381000000     1.926000000    -3.699000000
C    -0.144000000     1.810000000    -4.599000000
C     0.009000000     0.651000000    -5.359000000
H    -0.817000000    -0.055000000    -5.326000000
C     0.910000000     2.828000000    -4.505000000
H     0.858000000     3.735000000    -3.909000000
O    -1.630000000     3.279000000    -3.517000000
H    -1.031000000     1.435000000    -2.778000000
C    -4.196000000     1.218000000    -2.351000000
C    -4.353000000     2.708000000    -2.409000000
H    -5.305000000     2.924000000    -1.921000000
H    -4.450000000     3.082000000    -3.430000000
C    -3.193000000     3.398000000    -1.669000000
C    -1.919000000     3.723000000    -2.237000000
C    -0.942000000     4.364000000    -1.446000000
H     0.064000000     4.580000000    -1.798000000
C    -1.181000000     4.483000000    -0.086000000
O     0.007000000     4.831000000     0.545000000
C     0.663000000     3.834000000     1.388000000
H     0.330000000     2.848000000     1.035000000
C     2.163000000     3.930000000     1.428000000
C     2.820000000     3.711000000     2.640000000
H     2.320000000     3.722000000     3.605000000
C     2.931000000     4.156000000     0.285000000
H     2.467000000     4.146000000    -0.698000000
C     4.339000000     4.111000000     0.335000000
O     5.096000000     4.489000000    -0.772000000
C     4.953000000     3.954000000     1.596000000
H     6.039000000     3.924000000     1.600000000
C     4.213000000     3.737000000     2.714000000
O     4.814000000     3.560000000     3.966000000
C     4.473000000     2.580000000     4.886000000
C     4.498000000     1.284000000     4.497000000
H     4.742000000     0.926000000     3.500000000
C     4.243000000     2.900000000     6.210000000
H     4.294000000     3.963000000     6.434000000
C     3.879000000     1.920000000     7.156000000
H     3.656000000     2.220000000     8.177000000
C     3.773000000     0.598000000     6.727000000
H     3.460000000    -0.186000000     7.412000000
C     4.108000000     0.294000000     5.407000000
O     4.167000000    -1.025000000     5.039000000
C     3.016000000    -1.804000000     4.723000000
C     3.134000000    -3.175000000     4.673000000
H     4.126000000    -3.611000000     4.755000000
C     2.016000000    -3.970000000     4.324000000
O     2.193000000    -5.376000000     4.194000000
C     1.379000000    -6.048000000     3.281000000
C     1.529000000    -5.791000000     1.893000000
H     2.256000000    -5.114000000     1.452000000
C     0.411000000    -6.956000000     3.753000000
H     0.284000000    -7.112000000     4.822000000
C    -0.342000000    -7.663000000     2.824000000
H    -1.121000000    -8.383000000     3.065000000
C    -0.081000000    -7.539000000     1.465000000
H    -0.697000000    -8.033000000     0.718000000
C     0.889000000    -6.674000000     0.977000000
O     1.115000000    -6.612000000    -0.404000000
C     0.431000000    -5.778000000    -1.227000000
C     0.807000000    -5.749000000    -2.545000000
H     1.597000000    -6.426000000    -2.858000000
C     0.123000000    -4.919000000    -3.404000000
O     0.560000000    -4.925000000    -4.666000000
C     0.155000000    -3.947000000    -5.565000000
C     0.820000000    -2.728000000    -5.708000000
H     1.533000000    -2.481000000    -4.925000000
C    -0.775000000    -4.255000000    -6.582000000
H    -1.112000000    -5.287000000    -6.638000000
C    -1.081000000    -3.302000000    -7.607000000
H    -1.748000000    -3.540000000    -8.432000000
C    -0.308000000    -2.160000000    -7.727000000
H    -0.454000000    -1.484000000    -8.566000000
C     0.647000000    -1.863000000    -6.788000000
O     1.381000000    -0.671000000    -6.902000000
C     1.230000000     0.406000000    -5.994000000
C     2.252000000     1.303000000    -5.789000000
H     3.182000000     1.107000000    -6.316000000
C     2.081000000     2.454000000    -5.087000000
O     3.232000000     3.178000000    -5.038000000
C     3.565000000     4.200000000    -4.121000000
C     3.563000000     5.507000000    -4.514000000
H     3.205000000     5.751000000    -5.511000000
C     3.966000000     6.537000000    -3.641000000
H     4.018000000     7.593000000    -3.894000000
C     4.568000000     6.129000000    -2.384000000
H     4.820000000     6.908000000    -1.670000000
C     4.640000000     4.825000000    -1.997000000
C     4.086000000     3.875000000    -2.857000000
H     4.022000000     2.822000000    -2.593000000
C     2.438000000     0.449000000    -1.542000000
H     3.161000000     0.618000000    -2.337000000
C     1.141000000     0.105000000    -1.745000000
H     0.782000000     0.143000000    -2.771000000
C     0.241000000     0.077000000    -0.720000000
H    -0.824000000    -0.005000000    -0.814000000
C     0.721000000     0.233000000     0.536000000
H     0.025000000     0.247000000     1.371000000
C     2.086000000     0.298000000     0.830000000
H     2.408000000     0.230000000     1.866000000
C     2.936000000     0.479000000    -0.205000000
C     4.396000000     0.709000000     0.008000000
O     4.886000000     0.447000000     1.090000000
O     5.150000000     0.911000000    -0.925000000
O     7.412000000    -0.938000000    -1.004000000
H     6.540000000    -0.547000000    -0.954000000
H     7.719000000    -0.726000000    -1.886000000
O     8.794000000     1.642000000     4.528000000
H     8.171000000     1.862000000     3.835000000
H     8.389000000     0.909000000     4.991000000
O    10.028000000     1.197000000     0.455000000
H     9.103000000     1.432000000     0.528000000
H    10.434000000     1.951000000     0.029000000
O     9.675000000    -1.992000000     3.273000000
H     9.662000000    -2.118000000     2.324000000
H     8.885000000    -1.485000000     3.459000000
O     7.623000000    -4.104000000    -1.813000000
H     7.499000000    -4.061000000    -2.761000000
H     7.794000000    -3.199000000    -1.552000000
O     5.287000000    -4.933000000    -0.903000000
H     4.807000000    -4.167000000    -0.589000000
H     6.157000000    -4.599000000    -1.122000000
O     5.874000000     1.173000000    -3.542000000
H     5.532000000     1.169000000    -2.647000000
H     6.145000000     0.269000000    -3.699000000
O     6.629000000    -2.634000000     2.930000000
H     5.895000000    -2.848000000     2.354000000
H     6.894000000    -1.754000000     2.664000000
O     5.933000000    -1.698000000    -5.562000000
H     5.347000000    -1.639000000    -4.808000000
H     5.514000000    -1.160000000    -6.234000000
O     4.503000000    -2.279000000     1.160000000
H     4.517000000    -1.365000000     1.444000000
H     4.011000000    -2.266000000     0.339000000
O     7.704000000    -0.589000000     5.807000000
H     6.884000000    -0.799000000     5.360000000
H     7.530000000    -0.779000000     6.729000000
O     7.371000000     2.533000000    -0.579000000
H     6.936000000     3.323000000    -0.898000000
H     6.663000000     1.900000000    -0.463000000
O     8.921000000     4.242000000     0.930000000
H     8.969000000     5.108000000     0.524000000
H     8.329000000     3.746000000     0.365000000
O     4.247000000    -2.071000000    -3.441000000
H     4.041000000    -2.995000000    -3.582000000
H     3.801000000    -1.848000000    -2.625000000
O     7.234000000     0.041000000     2.219000000
H     6.374000000     0.354000000     1.938000000
H     7.705000000    -0.129000000     1.403000000
O     2.797000000    -2.867000000    -1.416000000
H     2.464000000    -3.521000000    -2.031000000
H     2.013000000    -2.426000000    -1.089000000
O     9.465000000     2.326000000    -2.708000000
H     8.703000000     2.277000000    -2.130000000
H    10.104000000     2.842000000    -2.216000000
O     8.933000000    -2.716000000     0.665000000
H     9.686000000    -3.082000000     0.202000000
H     8.536000000    -2.111000000     0.039000000
O     8.593000000    -0.359000000    -3.515000000
H     8.866000000     0.555000000    -3.436000000
H     8.820000000    -0.600000000    -4.413000000
