215
-1441.56185
C     1.706000000    -3.957000000     3.303000000
H     0.808000000    -4.468000000     2.966000000
C     1.542000000    -2.601000000     3.725000000
C     2.723000000    -1.861000000     3.986000000
H     2.581000000    -0.800000000     4.176000000
C     0.146000000    -1.975000000     3.772000000
O    -0.911000000    -3.004000000     3.918000000
H     0.045000000    -1.379000000     2.853000000
O     0.108000000    -1.040000000     4.895000000
C    -0.474000000     0.180000000     4.764000000
C     0.337000000     1.216000000     4.404000000
H     1.409000000     1.060000000     4.493000000
C    -0.203000000     2.420000000     3.960000000
O     0.639000000     3.404000000     3.544000000
C    -1.595000000     2.519000000     3.816000000
C    -2.133000000     3.854000000     3.296000000
H    -3.123000000     4.132000000     3.663000000
C    -2.207000000     3.873000000     1.811000000
C    -3.362000000     3.468000000     1.157000000
H    -4.246000000     3.172000000     1.716000000
H    -1.549000000     4.690000000     3.688000000
C    -2.415000000     1.443000000     4.180000000
H    -3.467000000     1.562000000     3.934000000
C    -1.878000000     0.278000000     4.618000000
C    -2.782000000    -0.953000000     4.794000000
H    -3.759000000    -0.790000000     5.254000000
H    -2.301000000    -1.600000000     5.531000000
C    -2.922000000    -1.724000000     3.551000000
C    -3.910000000    -1.396000000     2.640000000
H    -4.544000000    -0.529000000     2.806000000
C    -1.969000000    -2.763000000     3.213000000
C    -2.044000000    -3.510000000     2.054000000
H    -1.341000000    -4.295000000     1.788000000
C    -3.005000000    -3.128000000     1.135000000
O    -2.993000000    -3.718000000    -0.069000000
C    -2.590000000    -2.915000000    -1.222000000
C    -1.622000000    -3.624000000    -2.090000000
C    -1.715000000    -3.627000000    -3.442000000
H    -2.554000000    -3.186000000    -3.975000000
C    -0.456000000    -4.120000000    -1.522000000
H    -0.383000000    -4.007000000    -0.444000000
O    -3.737000000    -2.427000000    -1.993000000
H    -2.135000000    -1.970000000    -0.889000000
C    -3.951000000    -2.140000000     1.431000000
C    -5.086000000    -1.809000000     0.472000000
H    -5.970000000    -1.546000000     1.057000000
H    -5.476000000    -2.682000000    -0.055000000
C    -4.825000000    -0.804000000    -0.577000000
C    -5.139000000     0.550000000    -0.363000000
H    -5.687000000     0.764000000     0.551000000
C    -4.181000000    -1.137000000    -1.724000000
C    -3.738000000    -0.246000000    -2.641000000
H    -3.115000000    -0.648000000    -3.435000000
C    -3.970000000     1.110000000    -2.463000000
O    -3.358000000     1.897000000    -3.393000000
C    -2.118000000     2.330000000    -2.997000000
C    -1.065000000     2.283000000    -4.133000000
C    -1.217000000     1.446000000    -5.226000000
H    -2.227000000     1.121000000    -5.463000000
C     0.177000000     2.759000000    -3.782000000
H     0.410000000     3.172000000    -2.804000000
O    -2.287000000     3.682000000    -2.382000000
H    -1.800000000     1.685000000    -2.165000000
C    -4.734000000     1.517000000    -1.354000000
C    -4.762000000     3.039000000    -0.949000000
H    -5.617000000     3.314000000    -0.328000000
H    -4.814000000     3.721000000    -1.801000000
C    -3.409000000     3.440000000    -0.264000000
C    -2.269000000     3.745000000    -0.990000000
C    -1.153000000     4.251000000    -0.315000000
H    -0.294000000     4.572000000    -0.899000000
C    -1.075000000     4.266000000     1.064000000
O     0.154000000     4.550000000     1.656000000
C     0.970000000     3.446000000     2.135000000
H     0.785000000     2.504000000     1.599000000
C     2.462000000     3.666000000     1.793000000
C     3.496000000     3.131000000     2.558000000
H     3.171000000     2.429000000     3.322000000
C     2.842000000     4.483000000     0.751000000
H     2.062000000     4.852000000     0.090000000
C     4.162000000     4.761000000     0.489000000
O     4.637000000     5.405000000    -0.704000000
C     5.214000000     4.286000000     1.268000000
H     6.242000000     4.406000000     0.939000000
C     4.854000000     3.412000000     2.302000000
O     5.861000000     2.892000000     3.095000000
C     5.514000000     1.927000000     4.065000000
C     5.624000000     0.594000000     3.654000000
H     6.026000000     0.349000000     2.674000000
C     5.016000000     2.186000000     5.343000000
H     4.996000000     3.226000000     5.659000000
C     4.667000000     1.081000000     6.232000000
H     4.371000000     1.161000000     7.275000000
C     4.755000000    -0.194000000     5.718000000
H     4.462000000    -1.046000000     6.326000000
C     5.100000000    -0.459000000     4.381000000
O     5.125000000    -1.767000000     3.988000000
C     3.973000000    -2.492000000     3.843000000
C     4.024000000    -3.846000000     3.582000000
H     4.962000000    -4.394000000     3.558000000
C     2.928000000    -4.557000000     3.254000000
O     2.891000000    -5.884000000     2.940000000
C     2.357000000    -6.330000000     1.728000000
C     2.453000000    -5.642000000     0.536000000
H     3.090000000    -4.761000000     0.522000000
C     1.534000000    -7.497000000     1.792000000
H     1.312000000    -7.940000000     2.759000000
C     0.871000000    -7.948000000     0.655000000
H     0.168000000    -8.772000000     0.745000000
C     1.000000000    -7.305000000    -0.552000000
H     0.424000000    -7.693000000    -1.388000000
C     1.701000000    -6.048000000    -0.576000000
O     1.746000000    -5.258000000    -1.683000000
C     0.613000000    -4.763000000    -2.255000000
C     0.474000000    -4.697000000    -3.617000000
H     1.207000000    -5.091000000    -4.316000000
C    -0.622000000    -4.079000000    -4.204000000
O    -0.764000000    -4.100000000    -5.578000000
C    -1.299000000    -3.046000000    -6.286000000
C    -0.463000000    -1.965000000    -6.564000000
H     0.556000000    -1.965000000    -6.184000000
C    -2.595000000    -3.076000000    -6.665000000
H    -3.304000000    -3.868000000    -6.434000000
C    -3.135000000    -2.067000000    -7.354000000
H    -4.193000000    -2.006000000    -7.598000000
C    -2.346000000    -0.905000000    -7.556000000
H    -2.682000000     0.067000000    -7.909000000
C    -1.022000000    -0.811000000    -7.128000000
O    -0.326000000     0.370000000    -7.200000000
C    -0.157000000     1.211000000    -6.102000000
C     1.052000000     1.891000000    -5.843000000
H     1.938000000     1.711000000    -6.447000000
C     1.208000000     2.692000000    -4.723000000
O     2.528000000     3.106000000    -4.390000000
C     2.799000000     4.297000000    -3.673000000
C     2.399000000     5.453000000    -4.254000000
H     1.736000000     5.435000000    -5.116000000
C     2.717000000     6.711000000    -3.632000000
H     2.223000000     7.618000000    -3.973000000
C     3.386000000     6.649000000    -2.404000000
H     3.526000000     7.600000000    -1.896000000
C     3.977000000     5.487000000    -1.918000000
C     3.606000000     4.295000000    -2.549000000
H     4.058000000     3.335000000    -2.315000000
C     1.631000000    -0.489000000    -3.818000000
H     1.745000000    -0.876000000    -4.827000000
C     0.423000000    -0.516000000    -3.162000000
H    -0.483000000    -0.938000000    -3.591000000
C     0.298000000    -0.007000000    -1.889000000
H    -0.591000000    -0.150000000    -1.323000000
C     1.399000000     0.514000000    -1.240000000
H     1.282000000     0.846000000    -0.211000000
C     2.592000000     0.668000000    -1.960000000
H     3.444000000     1.125000000    -1.464000000
C     2.752000000     0.109000000    -3.226000000
C     4.050000000     0.253000000    -3.953000000
O     4.936000000     0.932000000    -3.545000000
O     4.128000000    -0.144000000    -5.128000000
O     3.640000000    -3.456000000    -8.510000000
H     3.193000000    -4.230000000    -8.167000000
H     4.549000000    -3.561000000    -8.231000000
O     7.128000000     4.099000000    -1.819000000
H     6.321000000     4.589000000    -1.657000000
H     6.943000000     3.587000000    -2.607000000
O     7.975000000    -0.193000000    -4.171000000
H     7.750000000    -0.741000000    -3.419000000
H     7.183000000     0.317000000    -4.340000000
O     5.468000000    -2.410000000    -4.953000000
H     4.912000000    -1.639000000    -5.067000000
H     4.867000000    -3.097000000    -4.665000000
O     8.510000000    -3.596000000    -6.589000000
H     7.683000000    -3.617000000    -6.107000000
H     8.892000000    -2.745000000    -6.372000000
O     7.047000000    -3.628000000    -3.171000000
H     6.477000000    -2.984000000    -3.592000000
H     7.919000000    -3.237000000    -3.209000000
O     6.064000000    -0.520000000    -1.362000000
H     6.668000000     0.035000000    -0.871000000
H     5.632000000     0.077000000    -1.974000000
O     5.518000000     1.092000000    -7.182000000
H     6.106000000     0.379000000    -7.431000000
H     5.000000000     0.734000000    -6.461000000
O     4.836000000    -2.683000000    -0.442000000
H     4.020000000    -2.620000000    -0.940000000
H     5.391000000    -1.992000000    -0.804000000
O     1.127000000    -0.813000000    -9.596000000
H     1.324000000    -0.500000000    -8.713000000
H     1.939000000    -0.676000000   -10.085000000
O     7.521000000     1.287000000    -0.330000000
H     7.932000000     1.038000000     0.498000000
H     8.014000000     2.054000000    -0.621000000
O     2.614000000    -1.173000000    -7.309000000
H     2.885000000    -2.044000000    -7.597000000
H     3.322000000    -0.879000000    -6.736000000
O     9.170000000     2.468000000    -4.307000000
H     8.680000000     1.659000000    -4.158000000
H     8.499000000     3.121000000    -4.507000000
O     4.479000000     3.882000000    -7.183000000
H     3.745000000     3.563000000    -7.708000000
H     5.004000000     3.101000000    -7.005000000
O     6.288000000     3.372000000    -4.499000000
H     5.996000000     3.731000000    -5.336000000
H     5.609000000     2.742000000    -4.258000000
O     2.495000000    -2.389000000    -1.734000000
H     1.683000000    -2.855000000    -1.537000000
H     2.208000000    -1.538000000    -2.066000000
O     3.559000000    -4.162000000    -4.025000000
H     3.517000000    -5.032000000    -3.627000000
H     3.362000000    -3.560000000    -3.307000000
O     9.222000000    -0.708000000    -6.688000000
H     8.871000000    -0.796000000    -5.802000000
H     9.637000000     0.154000000    -6.697000000
O     2.781000000     1.671000000    -8.668000000
H     3.006000000     0.921000000    -8.117000000
H     3.603000000     1.910000000    -9.096000000
