215
-1456.82209
C     1.683000000    -3.581000000     3.198000000
H     0.870000000    -4.031000000     2.634000000
C     1.426000000    -2.359000000     3.900000000
C     2.478000000    -1.790000000     4.722000000
H     2.272000000    -0.920000000     5.340000000
C    -0.023000000    -1.862000000     3.916000000
O    -1.017000000    -2.944000000     3.874000000
H    -0.098000000    -1.226000000     3.022000000
O    -0.296000000    -0.981000000     4.992000000
C    -0.861000000     0.205000000     4.769000000
C     0.022000000     1.276000000     4.591000000
H     1.088000000     1.083000000     4.672000000
C    -0.504000000     2.489000000     4.125000000
O     0.399000000     3.511000000     3.852000000
C    -1.882000000     2.707000000     3.902000000
C    -2.353000000     3.992000000     3.247000000
H    -3.366000000     4.240000000     3.570000000
C    -2.276000000     3.834000000     1.710000000
C    -3.444000000     3.464000000     1.053000000
H    -4.370000000     3.176000000     1.544000000
H    -1.648000000     4.776000000     3.531000000
C    -2.717000000     1.616000000     4.098000000
H    -3.768000000     1.700000000     3.832000000
C    -2.221000000     0.391000000     4.550000000
C    -3.134000000    -0.863000000     4.577000000
H    -4.115000000    -0.461000000     4.840000000
H    -2.835000000    -1.473000000     5.431000000
C    -3.099000000    -1.668000000     3.317000000
C    -4.103000000    -1.497000000     2.353000000
H    -4.964000000    -0.851000000     2.507000000
C    -2.059000000    -2.609000000     2.996000000
C    -2.063000000    -3.316000000     1.796000000
H    -1.340000000    -4.101000000     1.589000000
C    -3.008000000    -3.078000000     0.842000000
O    -2.983000000    -3.727000000    -0.400000000
C    -2.495000000    -2.974000000    -1.454000000
C    -1.353000000    -3.587000000    -2.229000000
C    -1.014000000    -3.169000000    -3.530000000
H    -1.565000000    -2.393000000    -4.056000000
C    -0.471000000    -4.410000000    -1.555000000
H    -0.732000000    -4.553000000    -0.509000000
O    -3.578000000    -2.647000000    -2.314000000
H    -2.186000000    -2.021000000    -1.000000000
C    -4.054000000    -2.153000000     1.134000000
C    -5.262000000    -2.078000000     0.204000000
H    -6.098000000    -1.646000000     0.756000000
H    -5.499000000    -3.004000000    -0.324000000
C    -4.874000000    -1.090000000    -0.906000000
C    -5.126000000     0.259000000    -0.595000000
H    -5.702000000     0.590000000     0.265000000
C    -4.162000000    -1.425000000    -2.076000000
C    -3.788000000    -0.429000000    -2.946000000
H    -3.188000000    -0.654000000    -3.825000000
C    -4.020000000     0.929000000    -2.661000000
O    -3.558000000     1.970000000    -3.456000000
C    -2.221000000     2.412000000    -3.188000000
C    -1.388000000     2.614000000    -4.487000000
C    -1.472000000     1.575000000    -5.467000000
H    -2.383000000     0.983000000    -5.485000000
C    -0.190000000     3.348000000    -4.343000000
H    -0.144000000     4.133000000    -3.592000000
O    -2.309000000     3.591000000    -2.473000000
H    -1.748000000     1.700000000    -2.496000000
C    -4.614000000     1.281000000    -1.455000000
C    -4.725000000     2.743000000    -0.994000000
H    -5.584000000     2.827000000    -0.325000000
H    -4.994000000     3.374000000    -1.844000000
C    -3.455000000     3.365000000    -0.349000000
C    -2.287000000     3.652000000    -1.045000000
C    -1.159000000     4.183000000    -0.390000000
H    -0.338000000     4.484000000    -1.035000000
C    -1.113000000     4.225000000     1.023000000
O     0.018000000     4.528000000     1.667000000
C     0.757000000     3.511000000     2.445000000
H     0.561000000     2.521000000     2.006000000
C     2.259000000     3.610000000     2.132000000
C     3.267000000     2.988000000     2.902000000
H     2.980000000     2.457000000     3.806000000
C     2.601000000     4.090000000     0.843000000
H     1.839000000     4.505000000     0.188000000
C     3.867000000     3.997000000     0.304000000
O     4.260000000     4.468000000    -0.944000000
C     4.862000000     3.417000000     1.184000000
H     5.866000000     3.373000000     0.769000000
C     4.563000000     2.888000000     2.436000000
O     5.602000000     2.313000000     3.161000000
C     5.438000000     1.658000000     4.328000000
C     4.937000000     0.324000000     4.316000000
H     4.626000000    -0.097000000     3.363000000
C     5.899000000     2.256000000     5.512000000
H     6.299000000     3.265000000     5.445000000
C     5.863000000     1.581000000     6.712000000
H     6.250000000     1.992000000     7.641000000
C     5.563000000     0.208000000     6.654000000
H     5.501000000    -0.338000000     7.592000000
C     5.080000000    -0.400000000     5.483000000
O     4.735000000    -1.767000000     5.562000000
C     3.796000000    -2.323000000     4.682000000
C     4.040000000    -3.390000000     3.801000000
H     4.953000000    -3.974000000     3.884000000
C     3.003000000    -4.031000000     3.143000000
O     3.313000000    -5.245000000     2.592000000
C     2.474000000    -5.987000000     1.835000000
C     2.170000000    -5.604000000     0.509000000
H     2.426000000    -4.604000000     0.169000000
C     1.928000000    -7.214000000     2.304000000
H     2.068000000    -7.598000000     3.311000000
C     1.109000000    -8.003000000     1.565000000
H     0.739000000    -8.886000000     2.078000000
C     0.848000000    -7.644000000     0.271000000
H     0.294000000    -8.321000000    -0.375000000
C     1.369000000    -6.415000000    -0.270000000
O     1.162000000    -6.171000000    -1.626000000
C     0.502000000    -5.076000000    -2.119000000
C     0.796000000    -4.807000000    -3.435000000
H     1.666000000    -5.293000000    -3.869000000
C     0.076000000    -3.800000000    -4.125000000
O     0.355000000    -3.607000000    -5.468000000
C    -0.341000000    -2.806000000    -6.393000000
C    -0.105000000    -1.432000000    -6.440000000
H     0.506000000    -0.996000000    -5.654000000
C    -1.147000000    -3.406000000    -7.371000000
H    -1.321000000    -4.477000000    -7.305000000
C    -1.737000000    -2.720000000    -8.396000000
H    -2.213000000    -3.240000000    -9.223000000
C    -1.517000000    -1.355000000    -8.461000000
H    -1.966000000    -0.778000000    -9.265000000
C    -0.772000000    -0.674000000    -7.449000000
O    -0.587000000     0.648000000    -7.473000000
C    -0.431000000     1.483000000    -6.368000000
C     0.666000000     2.334000000    -6.345000000
H     1.431000000     2.237000000    -7.111000000
C     0.799000000     3.239000000    -5.310000000
O     1.986000000     3.962000000    -5.143000000
C     2.354000000     4.706000000    -4.023000000
C     2.017000000     6.002000000    -4.007000000
H     1.611000000     6.448000000    -4.911000000
C     2.462000000     6.823000000    -3.015000000
H     2.278000000     7.891000000    -3.098000000
C     3.223000000     6.376000000    -1.957000000
H     3.521000000     7.028000000    -1.141000000
C     3.444000000     4.972000000    -1.940000000
C     3.059000000     4.141000000    -2.965000000
H     3.336000000     3.099000000    -3.103000000
C     2.009000000     0.198000000    -3.556000000
H     2.245000000    -0.153000000    -4.557000000
C     0.700000000     0.230000000    -3.038000000
H    -0.168000000     0.003000000    -3.652000000
C     0.499000000     0.602000000    -1.704000000
H    -0.481000000     0.543000000    -1.281000000
C     1.595000000     0.901000000    -0.887000000
H     1.543000000     1.179000000     0.162000000
C     2.873000000     0.843000000    -1.419000000
H     3.766000000     0.970000000    -0.812000000
C     3.149000000     0.526000000    -2.787000000
C     4.503000000     0.406000000    -3.308000000
O     5.368000000     1.055000000    -2.721000000
O     4.724000000    -0.267000000    -4.282000000
O     7.789000000     1.130000000    -3.892000000
H     6.918000000     0.931000000    -3.548000000
H     7.795000000     0.744000000    -4.768000000
O     8.102000000    -2.192000000    -4.287000000
H     7.598000000    -1.462000000    -3.930000000
H     8.211000000    -2.792000000    -3.550000000
O     4.233000000    -3.045000000    -4.155000000
H     4.191000000    -2.089000000    -4.175000000
H     3.946000000    -3.316000000    -5.027000000
O     5.388000000    -2.581000000    -8.318000000
H     5.299000000    -1.669000000    -8.041000000
H     6.234000000    -2.857000000    -7.966000000
O     5.517000000    -3.130000000    -1.652000000
H     5.250000000    -3.047000000    -2.568000000
H     4.917000000    -2.557000000    -1.175000000
O     6.368000000     0.713000000    -0.249000000
H     6.099000000     1.139000000    -1.063000000
H     7.218000000     1.102000000    -0.045000000
O     4.662000000     2.768000000    -6.708000000
H     4.594000000     2.405000000    -5.825000000
H     5.429000000     3.340000000    -6.673000000
O     4.511000000    -0.078000000    -7.123000000
H     4.847000000     0.787000000    -7.358000000
H     4.628000000    -0.131000000    -6.175000000
O     7.603000000    -1.888000000    -0.882000000
H     7.146000000    -1.331000000    -0.252000000
H     6.921000000    -2.460000000    -1.235000000
O     4.183000000    -5.801000000    -4.262000000
H     4.055000000    -4.932000000    -3.883000000
H     5.048000000    -5.760000000    -4.669000000
O     2.295000000    -0.469000000    -8.666000000
H     2.084000000    -1.393000000    -8.533000000
H     3.077000000    -0.323000000    -8.133000000
O     8.784000000     4.098000000    -3.487000000
H     8.318000000     4.824000000    -3.900000000
H     8.192000000     3.351000000    -3.577000000
O     9.132000000     0.238000000    -1.658000000
H     8.405000000    -0.334000000    -1.412000000
H     8.834000000     0.672000000    -2.458000000
O     8.219000000     0.404000000    -6.642000000
H     8.046000000    -0.535000000    -6.570000000
H     9.129000000     0.459000000    -6.931000000
O     5.850000000     3.570000000    -3.575000000
H     5.112000000     4.022000000    -3.165000000
H     5.734000000     2.652000000    -3.330000000
O     4.544000000    -1.267000000     0.199000000
H     5.043000000    -0.464000000     0.048000000
H     3.701000000    -0.965000000     0.538000000
O     5.313000000     6.685000000    -4.674000000
H     4.639000000     7.025000000    -5.262000000
H     5.046000000     5.782000000    -4.501000000
O     7.704000000    -2.753000000    -6.937000000
H     7.872000000    -2.736000000    -5.995000000
H     8.307000000    -3.415000000    -7.275000000
O     6.937000000    -5.323000000    -1.423000000
H     6.343000000    -4.572000000    -1.408000000
H     6.360000000    -6.084000000    -1.473000000
