215
-1468.51715
C     1.965000000    -3.615000000     2.135000000
H     1.173000000    -4.119000000     1.587000000
C     1.743000000    -2.566000000     3.012000000
C     2.851000000    -1.894000000     3.649000000
H     2.718000000    -1.066000000     4.341000000
C     0.309000000    -2.142000000     3.324000000
O    -0.630000000    -3.199000000     3.573000000
H    -0.058000000    -1.566000000     2.463000000
O     0.397000000    -1.268000000     4.513000000
C    -0.296000000    -0.058000000     4.488000000
C     0.450000000     1.136000000     4.498000000
H     1.532000000     1.121000000     4.595000000
C    -0.154000000     2.334000000     4.236000000
O     0.621000000     3.425000000     3.957000000
C    -1.579000000     2.377000000     4.156000000
C    -2.221000000     3.655000000     3.736000000
H    -3.237000000     3.730000000     4.128000000
C    -2.318000000     3.888000000     2.233000000
C    -3.474000000     3.513000000     1.486000000
H    -4.390000000     3.192000000     1.975000000
H    -1.694000000     4.533000000     4.113000000
C    -2.321000000     1.257000000     4.187000000
H    -3.367000000     1.328000000     3.900000000
C    -1.743000000     0.020000000     4.426000000
C    -2.516000000    -1.257000000     4.587000000
H    -3.471000000    -1.070000000     5.082000000
H    -1.997000000    -1.924000000     5.278000000
C    -2.757000000    -2.012000000     3.345000000
C    -3.888000000    -1.780000000     2.600000000
H    -4.656000000    -1.097000000     2.953000000
C    -1.831000000    -2.986000000     2.936000000
C    -1.996000000    -3.665000000     1.674000000
H    -1.330000000    -4.413000000     1.251000000
C    -3.088000000    -3.310000000     0.912000000
O    -3.169000000    -3.924000000    -0.339000000
C    -2.851000000    -3.151000000    -1.466000000
C    -2.054000000    -3.926000000    -2.485000000
C    -2.114000000    -3.615000000    -3.803000000
H    -2.656000000    -2.752000000    -4.180000000
C    -1.149000000    -4.916000000    -1.984000000
H    -1.115000000    -5.205000000    -0.937000000
O    -4.003000000    -2.502000000    -2.045000000
H    -2.091000000    -2.439000000    -1.111000000
C    -4.082000000    -2.428000000     1.352000000
C    -5.228000000    -1.923000000     0.511000000
H    -5.940000000    -1.456000000     1.195000000
H    -5.629000000    -2.794000000    -0.011000000
C    -4.779000000    -0.832000000    -0.456000000
C    -4.792000000     0.486000000    -0.106000000
H    -5.273000000     0.734000000     0.837000000
C    -4.283000000    -1.192000000    -1.724000000
C    -3.891000000    -0.223000000    -2.615000000
H    -3.414000000    -0.523000000    -3.544000000
C    -3.876000000     1.118000000    -2.179000000
O    -3.203000000     2.016000000    -2.946000000
C    -1.897000000     2.515000000    -2.492000000
C    -0.968000000     2.570000000    -3.672000000
C    -0.968000000     1.497000000    -4.564000000
H    -1.703000000     0.697000000    -4.526000000
C     0.086000000     3.537000000    -3.726000000
H     0.155000000     4.321000000    -2.976000000
O    -2.096000000     3.836000000    -1.981000000
H    -1.436000000     1.894000000    -1.710000000
C    -4.449000000     1.492000000    -0.993000000
C    -4.680000000     2.906000000    -0.669000000
H    -5.605000000     2.925000000    -0.088000000
H    -5.023000000     3.547000000    -1.484000000
C    -3.452000000     3.467000000     0.093000000
C    -2.231000000     3.844000000    -0.591000000
C    -1.196000000     4.395000000     0.155000000
H    -0.318000000     4.724000000    -0.395000000
C    -1.208000000     4.406000000     1.527000000
O     0.031000000     4.776000000     2.049000000
C     0.889000000     3.752000000     2.559000000
H     0.668000000     2.889000000     1.914000000
C     2.352000000     3.848000000     2.168000000
C     3.332000000     3.542000000     3.081000000
H     3.057000000     3.199000000     4.075000000
C     2.708000000     4.244000000     0.865000000
H     1.983000000     4.460000000     0.085000000
C     4.059000000     4.218000000     0.499000000
O     4.538000000     4.653000000    -0.749000000
C     5.038000000     3.754000000     1.397000000
H     6.079000000     3.639000000     1.105000000
C     4.625000000     3.384000000     2.685000000
O     5.607000000     2.908000000     3.502000000
C     5.534000000     1.825000000     4.333000000
C     5.474000000     0.553000000     3.714000000
H     5.608000000     0.480000000     2.638000000
C     5.463000000     1.901000000     5.734000000
H     5.408000000     2.915000000     6.122000000
C     5.582000000     0.741000000     6.489000000
H     5.602000000     0.748000000     7.576000000
C     5.536000000    -0.513000000     5.856000000
H     5.539000000    -1.425000000     6.447000000
C     5.456000000    -0.632000000     4.502000000
O     5.299000000    -1.889000000     3.976000000
C     4.146000000    -2.371000000     3.356000000
C     4.306000000    -3.524000000     2.589000000
H     5.312000000    -3.935000000     2.576000000
C     3.263000000    -4.163000000     2.046000000
O     3.536000000    -5.263000000     1.245000000
C     2.555000000    -6.072000000     0.727000000
C     2.310000000    -6.025000000    -0.655000000
H     2.899000000    -5.398000000    -1.318000000
C     1.893000000    -6.941000000     1.558000000
H     2.130000000    -6.997000000     2.618000000
C     0.861000000    -7.698000000     1.087000000
H     0.281000000    -8.473000000     1.581000000
C     0.596000000    -7.612000000    -0.257000000
H    -0.166000000    -8.286000000    -0.640000000
C     1.203000000    -6.735000000    -1.153000000
O     0.618000000    -6.651000000    -2.463000000
C    -0.307000000    -5.661000000    -2.868000000
C    -0.472000000    -5.407000000    -4.244000000
H     0.174000000    -5.889000000    -4.974000000
C    -1.373000000    -4.411000000    -4.687000000
O    -1.476000000    -4.269000000    -6.072000000
C    -1.553000000    -2.980000000    -6.533000000
C    -0.594000000    -2.015000000    -6.334000000
H     0.287000000    -2.178000000    -5.719000000
C    -2.735000000    -2.664000000    -7.226000000
H    -3.423000000    -3.463000000    -7.490000000
C    -2.974000000    -1.331000000    -7.647000000
H    -3.857000000    -1.039000000    -8.210000000
C    -2.027000000    -0.416000000    -7.431000000
H    -2.174000000     0.545000000    -7.917000000
C    -0.827000000    -0.693000000    -6.710000000
O     0.109000000     0.307000000    -6.428000000
C    -0.021000000     1.445000000    -5.575000000
C     0.956000000     2.411000000    -5.667000000
H     1.768000000     2.395000000    -6.390000000
C     1.017000000     3.552000000    -4.779000000
O     2.068000000     4.399000000    -4.790000000
C     2.532000000     5.177000000    -3.746000000
C     2.292000000     6.559000000    -3.710000000
H     1.671000000     7.125000000    -4.400000000
C     2.879000000     7.351000000    -2.709000000
H     2.615000000     8.402000000    -2.618000000
C     3.587000000     6.711000000    -1.663000000
H     3.996000000     7.233000000    -0.802000000
C     3.765000000     5.318000000    -1.728000000
C     3.294000000     4.577000000    -2.785000000
H     3.490000000     3.509000000    -2.832000000
C     1.564000000    -0.878000000    -3.205000000
H     1.816000000    -1.458000000    -4.090000000
C     0.418000000    -1.148000000    -2.419000000
H    -0.303000000    -1.830000000    -2.863000000
C     0.186000000    -0.432000000    -1.262000000
H    -0.753000000    -0.539000000    -0.653000000
C     1.066000000     0.539000000    -0.905000000
H     0.835000000     1.091000000     0.002000000
C     2.218000000     0.825000000    -1.628000000
H     2.899000000     1.607000000    -1.301000000
C     2.545000000     0.035000000    -2.741000000
C     3.836000000     0.276000000    -3.503000000
O     4.795000000     0.831000000    -2.986000000
O     4.033000000    -0.306000000    -4.575000000
O     4.346000000    -4.411000000    -6.556000000
H     3.577000000    -4.797000000    -6.975000000
H     5.085000000    -4.906000000    -6.911000000
O     7.022000000     4.365000000    -1.759000000
H     6.678000000     3.945000000    -2.548000000
H     6.252000000     4.739000000    -1.331000000
O     9.087000000    -1.386000000    -2.312000000
H     8.887000000    -1.853000000    -1.501000000
H    10.043000000    -1.344000000    -2.335000000
O     7.161000000    -0.386000000    -4.074000000
H     7.694000000    -0.823000000    -3.410000000
H     6.446000000     0.016000000    -3.580000000
O     4.605000000    -3.172000000    -3.866000000
H     4.164000000    -2.327000000    -3.953000000
H     4.450000000    -3.610000000    -4.704000000
O     5.220000000    -3.458000000    -1.126000000
H     5.257000000    -3.305000000    -2.070000000
H     4.524000000    -2.878000000    -0.816000000
O     5.732000000     0.885000000    -0.441000000
H     6.493000000     1.454000000    -0.327000000
H     5.448000000     1.042000000    -1.341000000
O     6.510000000    -1.755000000    -6.497000000
H     6.568000000    -1.104000000    -5.798000000
H     5.736000000    -2.274000000    -6.278000000
O     6.825000000    -1.514000000     0.333000000
H     6.238000000    -2.151000000    -0.075000000
H     6.428000000    -0.665000000     0.141000000
O     8.077000000     2.314000000    -0.120000000
H     8.823000000     2.030000000    -0.647000000
H     7.718000000     3.062000000    -0.596000000
O     3.490000000    -0.632000000    -7.191000000
H     4.080000000    -1.382000000    -7.270000000
H     3.456000000    -0.453000000    -6.251000000
O     8.940000000     1.956000000    -4.467000000
H     8.159000000     1.406000000    -4.535000000
H     8.602000000     2.825000000    -4.250000000
O     5.453000000     1.833000000    -7.157000000
H     5.657000000     1.064000000    -7.691000000
H     5.391000000     2.551000000    -7.786000000
O     6.942000000    -1.222000000    -9.282000000
H     6.845000000    -1.217000000    -8.329000000
H     6.108000000    -1.564000000    -9.605000000
O     6.186000000     2.925000000    -4.443000000
H     5.699000000     2.803000000    -5.258000000
H     5.858000000     2.239000000    -3.863000000
O     3.534000000    -1.535000000    -0.084000000
H     3.853000000    -0.632000000    -0.071000000
H     2.642000000    -1.469000000    -0.423000000
O     5.063000000     5.577000000    -6.733000000
H     5.367000000     4.669000000    -6.726000000
H     4.766000000     5.738000000    -5.838000000
O     9.276000000    -2.317000000    -5.492000000
H     8.885000000    -1.790000000    -4.796000000
H     8.650000000    -2.263000000    -6.214000000
O     2.716000000     1.945000000    -8.720000000
H     3.365000000     1.654000000    -8.079000000
H     2.929000000     1.456000000    -9.515000000
