215
-1446.11311
C     1.187000000    -4.002000000     3.121000000
H     0.198000000    -4.408000000     2.922000000
C     1.274000000    -2.674000000     3.596000000
C     2.540000000    -2.142000000     3.824000000
H     2.676000000    -1.103000000     4.114000000
C     0.037000000    -1.870000000     3.711000000
O    -1.115000000    -2.772000000     3.937000000
H    -0.120000000    -1.376000000     2.741000000
O     0.316000000    -0.985000000     4.796000000
C    -0.211000000     0.289000000     4.631000000
C     0.710000000     1.263000000     4.561000000
H     1.783000000     1.104000000     4.632000000
C     0.295000000     2.536000000     4.091000000
O     1.220000000     3.374000000     3.580000000
C    -1.059000000     2.837000000     3.917000000
C    -1.475000000     4.181000000     3.290000000
H    -2.466000000     4.488000000     3.631000000
C    -1.530000000     4.136000000     1.810000000
C    -2.777000000     3.915000000     1.181000000
H    -3.692000000     3.783000000     1.754000000
H    -0.790000000     4.940000000     3.674000000
C    -1.979000000     1.806000000     4.214000000
H    -3.026000000     2.058000000     4.066000000
C    -1.590000000     0.561000000     4.549000000
C    -2.645000000    -0.522000000     4.712000000
H    -3.587000000    -0.150000000     5.119000000
H    -2.371000000    -1.183000000     5.537000000
C    -2.937000000    -1.322000000     3.408000000
C    -3.928000000    -0.892000000     2.528000000
H    -4.459000000    -0.025000000     2.912000000
C    -2.259000000    -2.545000000     3.151000000
C    -2.488000000    -3.297000000     1.949000000
H    -1.852000000    -4.163000000     1.786000000
C    -3.506000000    -2.846000000     1.071000000
O    -3.523000000    -3.419000000    -0.102000000
C    -3.034000000    -2.695000000    -1.264000000
C    -2.272000000    -3.624000000    -2.132000000
C    -2.074000000    -3.403000000    -3.502000000
H    -2.526000000    -2.529000000    -3.964000000
C    -1.543000000    -4.643000000    -1.536000000
H    -1.476000000    -4.732000000    -0.454000000
O    -4.262000000    -2.175000000    -1.891000000
H    -2.389000000    -1.866000000    -0.936000000
C    -4.266000000    -1.665000000     1.399000000
C    -5.434000000    -1.171000000     0.512000000
H    -6.079000000    -0.676000000     1.240000000
H    -5.989000000    -2.032000000     0.135000000
C    -4.993000000    -0.192000000    -0.567000000
C    -4.920000000     1.182000000    -0.239000000
H    -5.486000000     1.701000000     0.531000000
C    -4.376000000    -0.773000000    -1.648000000
C    -3.891000000     0.042000000    -2.597000000
H    -3.504000000    -0.340000000    -3.538000000
C    -3.802000000     1.398000000    -2.289000000
O    -3.112000000     2.161000000    -3.207000000
C    -1.815000000     2.634000000    -2.933000000
C    -0.910000000     2.556000000    -4.062000000
C    -1.095000000     1.576000000    -5.043000000
H    -2.002000000     0.982000000    -5.121000000
C     0.256000000     3.355000000    -4.011000000
H     0.467000000     4.044000000    -3.196000000
O    -1.836000000     3.983000000    -2.330000000
H    -1.283000000     2.087000000    -2.140000000
C    -4.286000000     1.998000000    -1.152000000
C    -4.215000000     3.509000000    -0.875000000
H    -5.104000000     3.750000000    -0.289000000
H    -4.400000000     4.078000000    -1.789000000
C    -2.892000000     3.911000000    -0.191000000
C    -1.765000000     4.095000000    -0.974000000
C    -0.548000000     4.290000000    -0.349000000
H     0.288000000     4.512000000    -1.007000000
C    -0.401000000     4.363000000     1.062000000
O     0.823000000     4.441000000     1.578000000
C     1.472000000     3.303000000     2.151000000
H     1.057000000     2.435000000     1.618000000
C     2.930000000     3.273000000     1.861000000
C     3.887000000     2.706000000     2.733000000
H     3.590000000     2.088000000     3.576000000
C     3.386000000     3.854000000     0.648000000
H     2.687000000     4.215000000    -0.102000000
C     4.733000000     3.849000000     0.242000000
O     5.115000000     4.326000000    -0.968000000
C     5.668000000     3.396000000     1.242000000
H     6.745000000     3.391000000     1.091000000
C     5.244000000     2.808000000     2.435000000
O     6.212000000     2.266000000     3.270000000
C     5.973000000     1.197000000     4.007000000
C     5.502000000     0.060000000     3.442000000
H     5.391000000    -0.020000000     2.364000000
C     5.934000000     1.402000000     5.374000000
H     6.135000000     2.355000000     5.855000000
C     5.742000000     0.273000000     6.256000000
H     5.783000000     0.498000000     7.319000000
C     5.424000000    -0.943000000     5.638000000
H     5.309000000    -1.813000000     6.280000000
C     5.166000000    -0.998000000     4.260000000
O     4.907000000    -2.187000000     3.589000000
C     3.685000000    -2.805000000     3.534000000
C     3.657000000    -4.172000000     3.112000000
H     4.581000000    -4.612000000     2.746000000
C     2.360000000    -4.800000000     3.093000000
O     2.344000000    -6.097000000     2.592000000
C     1.287000000    -6.650000000     1.800000000
C     1.316000000    -6.467000000     0.381000000
H     2.152000000    -5.938000000    -0.070000000
C     0.193000000    -7.242000000     2.380000000
H     0.204000000    -7.411000000     3.454000000
C    -0.859000000    -7.615000000     1.589000000
H    -1.721000000    -8.175000000     1.941000000
C    -0.943000000    -7.278000000     0.206000000
H    -1.761000000    -7.706000000    -0.366000000
C     0.217000000    -6.694000000    -0.418000000
O     0.155000000    -6.412000000    -1.761000000
C    -0.683000000    -5.487000000    -2.341000000
C    -0.586000000    -5.350000000    -3.708000000
H    -0.035000000    -5.984000000    -4.397000000
C    -1.354000000    -4.294000000    -4.265000000
O    -1.259000000    -4.133000000    -5.618000000
C    -1.644000000    -2.913000000    -6.242000000
C    -0.848000000    -1.810000000    -6.168000000
H    -0.002000000    -1.830000000    -5.486000000
C    -2.494000000    -3.010000000    -7.388000000
H    -3.090000000    -3.898000000    -7.585000000
C    -2.659000000    -1.877000000    -8.173000000
H    -3.379000000    -1.794000000    -8.983000000
C    -2.059000000    -0.630000000    -7.841000000
H    -2.233000000     0.218000000    -8.499000000
C    -1.059000000    -0.629000000    -6.920000000
O    -0.071000000     0.398000000    -6.936000000
C    -0.012000000     1.310000000    -5.907000000
C     1.185000000     1.934000000    -5.735000000
H     2.024000000     1.566000000    -6.321000000
C     1.268000000     2.996000000    -4.883000000
O     2.471000000     3.648000000    -4.824000000
C     2.880000000     4.512000000    -3.801000000
C     2.788000000     5.875000000    -4.005000000
H     2.171000000     6.167000000    -4.851000000
C     3.393000000     6.777000000    -3.122000000
H     3.328000000     7.860000000    -3.185000000
C     4.167000000     6.278000000    -2.067000000
H     4.597000000     6.906000000    -1.291000000
C     4.225000000     4.847000000    -1.904000000
C     3.577000000     4.000000000    -2.764000000
H     3.796000000     2.937000000    -2.813000000
C     0.830000000    -0.185000000    -2.733000000
H     0.512000000    -0.313000000    -3.764000000
C    -0.058000000    -0.402000000    -1.639000000
H    -1.087000000    -0.717000000    -1.793000000
C     0.298000000    -0.005000000    -0.402000000
H    -0.412000000     0.059000000     0.426000000
C     1.608000000     0.417000000    -0.110000000
H     1.810000000     0.584000000     0.945000000
C     2.508000000     0.407000000    -1.172000000
H     3.523000000     0.748000000    -0.984000000
C     2.110000000     0.105000000    -2.467000000
C     3.084000000     0.009000000    -3.576000000
O     4.189000000     0.419000000    -3.314000000
O     2.919000000    -0.815000000    -4.479000000
O     4.489000000    -4.235000000    -6.475000000
H     4.871000000    -4.570000000    -5.663000000
H     3.802000000    -3.634000000    -6.185000000
O     7.947000000     1.941000000    -1.460000000
H     7.206000000     1.828000000    -2.055000000
H     7.752000000     1.364000000    -0.722000000
O     8.794000000    -2.247000000    -3.022000000
H     9.359000000    -1.877000000    -3.699000000
H     7.989000000    -2.482000000    -3.484000000
O     2.311000000    -3.359000000    -4.793000000
H     2.365000000    -2.429000000    -4.573000000
H     2.467000000    -3.811000000    -3.964000000
O     6.324000000    -2.524000000    -4.236000000
H     5.591000000    -3.025000000    -4.596000000
H     6.056000000    -2.319000000    -3.340000000
O     5.549000000    -1.364000000    -1.883000000
H     5.931000000    -0.753000000    -1.253000000
H     4.882000000    -0.851000000    -2.339000000
O     4.840000000     0.031000000    -6.551000000
H     5.794000000    -0.049000000    -6.537000000
H     4.568000000    -0.179000000    -5.658000000
O     5.123000000    -3.586000000    -0.178000000
H     5.020000000    -2.783000000    -0.688000000
H     4.984000000    -4.291000000    -0.810000000
O     1.940000000    -0.792000000    -9.984000000
H     2.148000000    -0.619000000    -9.066000000
H     2.721000000    -1.225000000   -10.329000000
O     6.910000000    -0.054000000     0.519000000
H     7.295000000    -0.900000000     0.292000000
H     7.645000000     0.462000000     0.852000000
O     2.530000000    -1.310000000    -7.444000000
H     2.200000000    -1.586000000    -6.589000000
H     3.395000000    -0.945000000    -7.261000000
O     5.089000000    -4.985000000    -3.914000000
H     4.256000000    -4.858000000    -3.460000000
H     5.383000000    -5.853000000    -3.637000000
O     6.589000000    -2.908000000    -8.125000000
H     5.695000000    -2.984000000    -7.792000000
H     6.990000000    -2.227000000    -7.584000000
O     6.332000000     1.779000000    -3.967000000
H     5.644000000     1.192000000    -3.653000000
H     6.910000000     1.217000000    -4.483000000
O     1.169000000    -3.013000000    -0.979000000
H     1.183000000    -2.845000000    -0.037000000
H     0.954000000    -2.167000000    -1.371000000
O     2.600000000    -4.813000000    -2.513000000
H     2.320000000    -4.423000000    -1.685000000
H     1.786000000    -5.087000000    -2.936000000
O     7.224000000     4.592000000    -3.719000000
H     6.696000000     4.976000000    -4.418000000
H     6.871000000     3.709000000    -3.609000000
O     7.397000000    -0.732000000    -6.042000000
H     7.278000000    -1.535000000    -5.535000000
H     8.334000000    -0.549000000    -5.986000000
O     4.217000000     2.623000000    -7.670000000
H     4.627000000     1.832000000    -7.321000000
H     3.412000000     2.719000000    -7.161000000
