215
-1436.56986
C     1.349000000    -4.150000000     3.081000000
H     0.410000000    -4.621000000     2.800000000
C     1.256000000    -2.806000000     3.697000000
C     2.422000000    -2.141000000     4.126000000
H     2.410000000    -1.093000000     4.415000000
C    -0.101000000    -2.042000000     3.966000000
O    -1.271000000    -2.945000000     3.907000000
H    -0.117000000    -1.388000000     3.081000000
O    -0.109000000    -1.070000000     5.058000000
C    -0.573000000     0.233000000     4.775000000
C     0.317000000     1.294000000     4.629000000
H     1.390000000     1.193000000     4.766000000
C    -0.169000000     2.453000000     3.985000000
O     0.703000000     3.348000000     3.598000000
C    -1.537000000     2.585000000     3.718000000
C    -2.029000000     3.883000000     3.211000000
H    -3.020000000     3.973000000     3.660000000
C    -2.094000000     4.048000000     1.646000000
C    -3.209000000     3.807000000     0.926000000
H    -4.141000000     3.560000000     1.429000000
H    -1.432000000     4.709000000     3.604000000
C    -2.414000000     1.548000000     3.853000000
H    -3.469000000     1.677000000     3.628000000
C    -1.971000000     0.381000000     4.477000000
C    -2.997000000    -0.696000000     4.592000000
H    -3.933000000    -0.156000000     4.750000000
H    -2.741000000    -1.251000000     5.496000000
C    -3.167000000    -1.583000000     3.342000000
C    -3.993000000    -1.185000000     2.349000000
H    -4.659000000    -0.357000000     2.576000000
C    -2.292000000    -2.637000000     3.096000000
C    -2.308000000    -3.207000000     1.790000000
H    -1.597000000    -4.008000000     1.609000000
C    -3.332000000    -2.933000000     0.896000000
O    -3.226000000    -3.631000000    -0.297000000
C    -2.636000000    -2.911000000    -1.393000000
C    -1.701000000    -3.738000000    -2.185000000
C    -1.340000000    -3.471000000    -3.524000000
H    -1.735000000    -2.571000000    -3.988000000
C    -1.059000000    -4.928000000    -1.659000000
H    -1.204000000    -5.194000000    -0.615000000
O    -3.696000000    -2.228000000    -2.166000000
H    -1.994000000    -2.096000000    -1.028000000
C    -4.140000000    -1.803000000     1.077000000
C    -5.250000000    -1.457000000     0.141000000
H    -5.916000000    -0.840000000     0.748000000
H    -5.891000000    -2.247000000    -0.256000000
C    -4.724000000    -0.446000000    -0.870000000
C    -4.963000000     0.909000000    -0.679000000
H    -5.652000000     1.164000000     0.122000000
C    -3.952000000    -0.875000000    -1.937000000
C    -3.434000000    -0.004000000    -2.861000000
H    -2.763000000    -0.460000000    -3.584000000
C    -3.657000000     1.355000000    -2.641000000
O    -3.067000000     2.286000000    -3.429000000
C    -1.791000000     2.792000000    -2.989000000
C    -0.706000000     2.772000000    -4.061000000
C    -0.832000000     1.812000000    -5.036000000
H    -1.673000000     1.127000000    -4.966000000
C     0.401000000     3.573000000    -4.050000000
H     0.610000000     4.250000000    -3.226000000
O    -2.054000000     4.141000000    -2.548000000
H    -1.481000000     2.184000000    -2.127000000
C    -4.425000000     1.795000000    -1.525000000
C    -4.495000000     3.257000000    -1.155000000
H    -5.345000000     3.521000000    -0.522000000
H    -4.623000000     3.857000000    -2.058000000
C    -3.251000000     3.833000000    -0.473000000
C    -2.150000000     4.329000000    -1.189000000
C    -0.973000000     4.594000000    -0.450000000
H    -0.081000000     4.719000000    -1.059000000
C    -0.918000000     4.373000000     0.919000000
O     0.332000000     4.521000000     1.545000000
C     0.981000000     3.348000000     2.130000000
H     0.617000000     2.465000000     1.584000000
C     2.542000000     3.346000000     1.833000000
C     3.475000000     2.817000000     2.720000000
H     3.167000000     2.882000000     3.761000000
C     2.973000000     3.718000000     0.535000000
H     2.283000000     4.123000000    -0.201000000
C     4.338000000     3.694000000     0.264000000
O     4.800000000     4.085000000    -0.953000000
C     5.241000000     3.235000000     1.192000000
H     6.299000000     3.203000000     0.943000000
C     4.888000000     2.740000000     2.452000000
O     5.901000000     2.228000000     3.245000000
C     5.533000000     1.321000000     4.167000000
C     5.557000000    -0.029000000     3.883000000
H     5.908000000    -0.378000000     2.915000000
C     5.068000000     1.857000000     5.406000000
H     5.059000000     2.915000000     5.654000000
C     4.584000000     0.978000000     6.392000000
H     3.984000000     1.386000000     7.202000000
C     4.547000000    -0.368000000     6.085000000
H     4.035000000    -1.036000000     6.774000000
C     4.957000000    -0.873000000     4.836000000
O     4.834000000    -2.249000000     4.528000000
C     3.641000000    -2.825000000     4.075000000
C     3.736000000    -4.108000000     3.494000000
H     4.741000000    -4.490000000     3.336000000
C     2.586000000    -4.767000000     3.044000000
O     2.771000000    -5.999000000     2.533000000
C     1.796000000    -6.644000000     1.799000000
C     1.818000000    -6.513000000     0.395000000
H     2.603000000    -6.086000000    -0.223000000
C     0.800000000    -7.416000000     2.455000000
H     0.785000000    -7.425000000     3.542000000
C    -0.246000000    -7.992000000     1.628000000
H    -1.147000000    -8.517000000     1.938000000
C    -0.248000000    -7.823000000     0.237000000
H    -1.013000000    -8.283000000    -0.385000000
C     0.709000000    -7.032000000    -0.303000000
O     0.656000000    -6.750000000    -1.718000000
C    -0.127000000    -5.718000000    -2.312000000
C     0.234000000    -5.271000000    -3.594000000
H     1.021000000    -5.733000000    -4.185000000
C    -0.439000000    -4.242000000    -4.237000000
O     0.006000000    -3.960000000    -5.493000000
C    -0.583000000    -2.897000000    -6.277000000
C     0.007000000    -1.569000000    -6.274000000
H     0.932000000    -1.341000000    -5.751000000
C    -1.870000000    -3.022000000    -6.839000000
H    -2.474000000    -3.896000000    -6.608000000
C    -2.451000000    -1.921000000    -7.448000000
H    -3.411000000    -2.165000000    -7.897000000
C    -1.853000000    -0.655000000    -7.493000000
H    -2.274000000     0.222000000    -7.978000000
C    -0.592000000    -0.484000000    -6.933000000
O     0.056000000     0.700000000    -7.029000000
C     0.121000000     1.637000000    -6.036000000
C     1.311000000     2.443000000    -6.000000000
H     2.140000000     2.203000000    -6.662000000
C     1.427000000     3.398000000    -4.996000000
O     2.484000000     4.297000000    -5.087000000
C     3.044000000     5.019000000    -4.052000000
C     2.911000000     6.406000000    -3.859000000
H     2.502000000     6.983000000    -4.685000000
C     3.332000000     6.966000000    -2.675000000
H     3.255000000     8.050000000    -2.634000000
C     3.872000000     6.209000000    -1.723000000
H     4.151000000     6.642000000    -0.766000000
C     4.062000000     4.841000000    -1.906000000
C     3.661000000     4.256000000    -3.053000000
H     3.900000000     3.213000000    -3.248000000
C     0.897000000     0.226000000    -1.812000000
H     0.887000000     0.202000000    -2.899000000
C    -0.247000000     0.000000000    -1.078000000
H    -1.200000000    -0.165000000    -1.573000000
C    -0.087000000    -0.201000000     0.296000000
H    -0.961000000    -0.518000000     0.934000000
C     1.131000000    -0.057000000     0.921000000
H     1.148000000    -0.265000000     1.988000000
C     2.244000000     0.158000000     0.104000000
H     3.122000000     0.476000000     0.661000000
C     2.164000000     0.300000000    -1.260000000
C     3.445000000     0.411000000    -2.040000000
O     4.516000000     0.621000000    -1.496000000
O     3.552000000     0.111000000    -3.195000000
O     5.450000000    -1.946000000    -3.152000000
H     4.978000000    -1.157000000    -3.419000000
H     6.331000000    -1.639000000    -2.939000000
O     7.367000000     0.074000000    -4.936000000
H     7.157000000    -0.825000000    -5.190000000
H     8.089000000     0.323000000    -5.512000000
O     8.103000000    -2.060000000    -2.211000000
H     8.666000000    -1.296000000    -2.329000000
H     8.500000000    -2.540000000    -1.484000000
O     2.541000000    -2.538000000    -3.360000000
H     2.917000000    -1.665000000    -3.241000000
H     2.056000000    -2.479000000    -4.183000000
O     2.897000000    -3.198000000    -7.327000000
H     3.639000000    -3.417000000    -6.764000000
H     2.808000000    -2.248000000    -7.247000000
O     3.716000000    -5.017000000    -2.687000000
H     3.853000000    -4.142000000    -3.050000000
H     2.815000000    -5.005000000    -2.365000000
O     6.738000000     2.249000000    -1.853000000
H     6.333000000     3.108000000    -1.737000000
H     6.051000000     1.626000000    -1.616000000
O     6.113000000     2.682000000    -7.328000000
H     5.631000000     2.412000000    -6.546000000
H     5.501000000     3.245000000    -7.803000000
O     9.302000000     2.275000000    -4.169000000
H     8.777000000     1.495000000    -3.991000000
H    10.021000000     1.960000000    -4.716000000
O     3.474000000    -0.586000000    -7.182000000
H     3.747000000    -0.076000000    -6.419000000
H     3.016000000     0.044000000    -7.739000000
O     4.414000000    -2.603000000    -0.579000000
H     4.748000000    -2.412000000    -1.456000000
H     3.706000000    -3.231000000    -0.724000000
O     9.146000000     0.621000000    -1.466000000
H     9.910000000     1.059000000    -1.841000000
H     8.419000000     1.218000000    -1.638000000
O     5.474000000    -0.561000000     0.602000000
H     5.259000000    -0.055000000    -0.182000000
H     5.044000000    -1.405000000     0.467000000
O     8.088000000    -0.251000000     1.308000000
H     8.402000000    -0.312000000     0.406000000
H     7.136000000    -0.198000000     1.228000000
O     4.783000000     0.989000000    -5.472000000
H     5.688000000     0.984000000    -5.159000000
H     4.270000000     0.677000000    -4.727000000
O     1.880000000    -3.598000000    -0.851000000
H     1.205000000    -3.152000000    -0.338000000
H     1.925000000    -3.103000000    -1.669000000
O     7.776000000     4.410000000    -5.119000000
H     7.313000000     3.729000000    -5.607000000
H     8.350000000     3.929000000    -4.523000000
O     5.282000000    -3.413000000    -6.050000000
H     5.331000000    -3.759000000    -5.159000000
H     6.179000000    -3.466000000    -6.378000000
O     8.019000000    -3.556000000     0.258000000
H     7.067000000    -3.500000000     0.338000000
H     8.339000000    -3.505000000     1.159000000
