215
-1430.88495
C    -0.009000000    -4.469000000     2.668000000
H    -1.069000000    -4.563000000     2.449000000
C     0.573000000    -3.318000000     3.217000000
C     1.930000000    -3.172000000     3.243000000
H     2.249000000    -2.161000000     3.485000000
C    -0.297000000    -2.106000000     3.390000000
O    -1.645000000    -2.497000000     3.751000000
H    -0.221000000    -1.669000000     2.383000000
O     0.266000000    -1.287000000     4.407000000
C     0.140000000     0.073000000     4.389000000
C     1.287000000     0.794000000     4.113000000
H     2.206000000     0.309000000     3.792000000
C     1.285000000     2.141000000     4.052000000
O     2.390000000     2.838000000     3.738000000
C     0.056000000     2.838000000     4.116000000
C     0.000000000     4.374000000     3.725000000
H    -0.901000000     4.714000000     4.239000000
C    -0.122000000     4.486000000     2.176000000
C    -1.425000000     4.488000000     1.594000000
H    -2.250000000     4.499000000     2.302000000
H     0.804000000     4.936000000     4.203000000
C    -1.101000000     2.156000000     4.516000000
H    -2.054000000     2.678000000     4.529000000
C    -1.087000000     0.744000000     4.592000000
C    -2.463000000     0.077000000     4.790000000
H    -3.173000000     0.799000000     5.197000000
H    -2.250000000    -0.746000000     5.476000000
C    -3.053000000    -0.538000000     3.535000000
C    -3.983000000     0.148000000     2.821000000
H    -4.343000000     1.135000000     3.101000000
C    -2.611000000    -1.835000000     3.083000000
C    -3.164000000    -2.333000000     1.908000000
H    -2.874000000    -3.260000000     1.420000000
C    -4.203000000    -1.671000000     1.244000000
O    -4.607000000    -2.228000000     0.050000000
C    -3.963000000    -1.692000000    -1.114000000
C    -3.483000000    -2.807000000    -2.078000000
C    -3.073000000    -2.483000000    -3.375000000
H    -3.142000000    -1.443000000    -3.684000000
C    -3.263000000    -4.094000000    -1.551000000
H    -3.635000000    -4.378000000    -0.570000000
O    -4.806000000    -0.699000000    -1.735000000
H    -3.120000000    -1.113000000    -0.709000000
C    -4.562000000    -0.381000000     1.663000000
C    -5.567000000     0.424000000     0.812000000
H    -6.072000000     1.189000000     1.406000000
H    -6.385000000    -0.256000000     0.565000000
C    -4.821000000     1.237000000    -0.272000000
C    -4.356000000     2.455000000     0.082000000
H    -4.484000000     2.814000000     1.100000000
C    -4.476000000     0.621000000    -1.490000000
C    -3.717000000     1.323000000    -2.393000000
H    -3.365000000     0.809000000    -3.284000000
C    -3.247000000     2.595000000    -2.038000000
O    -2.327000000     3.124000000    -2.933000000
C    -0.948000000     3.085000000    -2.481000000
C    -0.027000000     2.682000000    -3.646000000
C    -0.437000000     1.746000000    -4.673000000
H    -1.474000000     1.419000000    -4.670000000
C     1.332000000     2.989000000    -3.525000000
H     1.731000000     3.529000000    -2.670000000
O    -0.614000000     4.356000000    -1.929000000
H    -0.838000000     2.257000000    -1.765000000
C    -3.524000000     3.198000000    -0.786000000
C    -3.086000000     4.605000000    -0.365000000
H    -3.774000000     5.191000000     0.248000000
H    -2.892000000     5.241000000    -1.231000000
C    -1.692000000     4.514000000     0.183000000
C    -0.540000000     4.495000000    -0.586000000
C     0.744000000     4.449000000    -0.053000000
H     1.658000000     4.373000000    -0.638000000
C     0.927000000     4.427000000     1.356000000
O     2.212000000     4.301000000     1.891000000
C     2.665000000     3.051000000     2.342000000
H     2.017000000     2.403000000     1.733000000
C     4.055000000     2.739000000     1.832000000
C     4.688000000     1.655000000     2.340000000
H     4.324000000     1.220000000     3.268000000
C     4.568000000     3.366000000     0.655000000
H     4.016000000     4.188000000     0.205000000
C     5.842000000     2.962000000     0.174000000
O     6.416000000     3.845000000    -0.730000000
C     6.467000000     1.869000000     0.754000000
H     7.452000000     1.554000000     0.418000000
C     5.849000000     1.121000000     1.769000000
O     6.465000000    -0.016000000     2.175000000
C     5.955000000    -0.953000000     3.021000000
C     5.398000000    -2.135000000     2.541000000
H     5.351000000    -2.461000000     1.505000000
C     6.002000000    -0.681000000     4.449000000
H     6.392000000     0.209000000     4.935000000
C     5.519000000    -1.678000000     5.265000000
H     5.522000000    -1.530000000     6.342000000
C     4.986000000    -2.847000000     4.755000000
H     4.527000000    -3.614000000     5.374000000
C     4.791000000    -2.988000000     3.407000000
O     4.157000000    -4.064000000     2.838000000
C     2.744000000    -4.166000000     2.832000000
C     2.137000000    -5.391000000     2.470000000
H     2.638000000    -6.324000000     2.225000000
C     0.782000000    -5.522000000     2.283000000
O     0.263000000    -6.798000000     1.958000000
C    -0.930000000    -6.981000000     1.331000000
C    -1.122000000    -6.537000000     0.066000000
H    -0.324000000    -5.918000000    -0.337000000
C    -1.944000000    -7.621000000     2.049000000
H    -1.695000000    -8.004000000     3.035000000
C    -3.138000000    -7.915000000     1.374000000
H    -3.900000000    -8.423000000     1.959000000
C    -3.342000000    -7.469000000     0.055000000
H    -4.310000000    -7.657000000    -0.404000000
C    -2.335000000    -6.771000000    -0.626000000
O    -2.431000000    -6.381000000    -1.952000000
C    -2.845000000    -5.124000000    -2.449000000
C    -2.367000000    -4.795000000    -3.690000000
H    -2.031000000    -5.587000000    -4.354000000
C    -2.674000000    -3.490000000    -4.238000000
O    -2.285000000    -3.203000000    -5.571000000
C    -2.365000000    -1.923000000    -6.073000000
C    -1.131000000    -1.298000000    -6.034000000
H    -0.251000000    -1.755000000    -5.588000000
C    -3.575000000    -1.361000000    -6.572000000
H    -4.485000000    -1.955000000    -6.564000000
C    -3.490000000    -0.075000000    -7.045000000
H    -4.362000000     0.394000000    -7.493000000
C    -2.269000000     0.516000000    -7.185000000
H    -2.124000000     1.476000000    -7.672000000
C    -1.114000000    -0.086000000    -6.676000000
O     0.052000000     0.539000000    -6.673000000
C     0.502000000     1.313000000    -5.654000000
C     1.805000000     1.671000000    -5.512000000
H     2.530000000     1.283000000    -6.223000000
C     2.236000000     2.521000000    -4.509000000
O     3.609000000     2.775000000    -4.521000000
C     4.299000000     3.688000000    -3.738000000
C     4.109000000     5.046000000    -4.014000000
H     3.450000000     5.260000000    -4.852000000
C     4.767000000     5.954000000    -3.226000000
H     4.689000000     7.018000000    -3.436000000
C     5.651000000     5.545000000    -2.195000000
H     6.211000000     6.289000000    -1.635000000
C     5.732000000     4.218000000    -1.907000000
C     5.005000000     3.205000000    -2.673000000
H     5.086000000     2.137000000    -2.489000000
C     1.090000000    -0.588000000    -2.470000000
H     0.700000000    -0.510000000    -3.482000000
C     0.177000000    -0.379000000    -1.402000000
H    -0.889000000    -0.462000000    -1.598000000
C     0.651000000    -0.152000000    -0.083000000
H    -0.035000000     0.056000000     0.710000000
C     1.997000000    -0.228000000     0.201000000
H     2.315000000    -0.044000000     1.224000000
C     2.916000000    -0.329000000    -0.892000000
H     3.995000000    -0.268000000    -0.783000000
C     2.477000000    -0.609000000    -2.160000000
C     3.408000000    -0.700000000    -3.316000000
O     4.603000000    -0.880000000    -3.079000000
O     3.085000000    -0.969000000    -4.482000000
O     0.893000000    -4.810000000    -4.224000000
H     0.061000000    -4.340000000    -4.159000000
H     1.440000000    -4.253000000    -4.778000000
O     3.615000000    -3.317000000    -0.463000000
H     4.087000000    -3.576000000    -1.254000000
H     3.481000000    -2.374000000    -0.563000000
O     7.815000000    -1.359000000    -2.426000000
H     8.130000000    -2.228000000    -2.673000000
H     7.677000000    -1.414000000    -1.480000000
O     7.513000000    -2.271000000    -6.936000000
H     6.919000000    -2.964000000    -6.647000000
H     8.302000000    -2.396000000    -6.409000000
O     7.908000000    -1.525000000     0.313000000
H     8.328000000    -2.004000000     1.027000000
H     7.214000000    -1.020000000     0.739000000
O     1.506000000    -1.354000000    -8.222000000
H     0.823000000    -0.839000000    -7.792000000
H     2.255000000    -0.760000000    -8.277000000
O     3.208000000    -4.763000000    -8.572000000
H     3.281000000    -4.270000000    -7.755000000
H     3.684000000    -5.576000000    -8.404000000
O     4.974000000    -0.568000000    -6.330000000
H     4.300000000    -0.961000000    -5.776000000
H     5.750000000    -0.529000000    -5.771000000
O     2.266000000    -2.966000000    -5.957000000
H     2.495000000    -2.221000000    -5.401000000
H     2.256000000    -2.609000000    -6.845000000
O     5.040000000    -1.875000000    -9.210000000
H     4.562000000    -1.511000000    -8.465000000
H     5.942000000    -1.584000000    -9.081000000
O     6.717000000    -4.447000000     0.056000000
H     6.641000000    -4.260000000    -0.880000000
H     7.531000000    -4.018000000     0.320000000
O     1.448000000    -6.194000000    -1.945000000
H     1.179000000    -5.862000000    -2.802000000
H     1.382000000    -5.436000000    -1.364000000
O     4.663000000    -3.682000000    -2.948000000
H     5.524000000    -3.973000000    -3.251000000
H     4.609000000    -2.767000000    -3.222000000
O     6.636000000     0.205000000    -4.345000000
H     5.799000000     0.093000000    -3.895000000
H     7.210000000    -0.453000000    -3.953000000
O     3.413000000     0.443000000    -8.297000000
H     4.095000000     0.427000000    -7.626000000
H     3.545000000     1.274000000    -8.753000000
O     1.020000000    -3.295000000    -1.074000000
H     0.832000000    -2.357000000    -1.101000000
H     1.972000000    -3.346000000    -0.992000000
O     8.781000000     1.466000000    -1.911000000
H     9.262000000     0.700000000    -1.596000000
H     8.175000000     1.117000000    -2.565000000
O     7.841000000     1.683000000    -6.458000000
H     8.643000000     1.207000000    -6.674000000
H     7.274000000     1.025000000    -6.054000000
O     5.001000000    -4.839000000    -5.718000000
H     4.349000000    -4.278000000    -5.299000000
H     5.184000000    -5.519000000    -5.071000000
