215
-1453.54749
C     0.592000000    -4.204000000     2.273000000
H    -0.466000000    -4.404000000     2.122000000
C     0.988000000    -3.200000000     3.096000000
C     2.324000000    -3.075000000     3.395000000
H     2.675000000    -2.245000000     4.003000000
C    -0.007000000    -2.166000000     3.610000000
O    -1.254000000    -2.930000000     3.814000000
H    -0.235000000    -1.555000000     2.725000000
O     0.489000000    -1.458000000     4.750000000
C     0.208000000    -0.113000000     4.757000000
C     1.288000000     0.764000000     4.424000000
H     2.272000000     0.305000000     4.389000000
C     1.077000000     2.082000000     4.071000000
O     2.227000000     2.727000000     3.623000000
C    -0.223000000     2.652000000     4.094000000
C    -0.522000000     4.039000000     3.723000000
H    -1.298000000     4.541000000     4.304000000
C    -0.702000000     4.200000000     2.168000000
C    -1.990000000     4.194000000     1.620000000
H    -2.833000000     4.028000000     2.287000000
H     0.403000000     4.574000000     3.951000000
C    -1.249000000     1.803000000     4.587000000
H    -2.287000000     2.092000000     4.732000000
C    -1.060000000     0.459000000     4.898000000
C    -2.261000000    -0.398000000     5.132000000
H    -3.007000000     0.305000000     5.508000000
H    -2.175000000    -1.249000000     5.810000000
C    -2.867000000    -0.961000000     3.880000000
C    -3.913000000    -0.317000000     3.216000000
H    -4.326000000     0.584000000     3.663000000
C    -2.443000000    -2.255000000     3.413000000
C    -2.933000000    -2.737000000     2.243000000
H    -2.596000000    -3.674000000     1.808000000
C    -3.896000000    -1.987000000     1.526000000
O    -4.380000000    -2.588000000     0.388000000
C    -3.870000000    -2.087000000    -0.849000000
C    -3.511000000    -3.132000000    -1.846000000
C    -3.072000000    -2.800000000    -3.134000000
H    -3.013000000    -1.779000000    -3.501000000
C    -3.399000000    -4.453000000    -1.471000000
H    -3.632000000    -4.793000000    -0.465000000
O    -4.837000000    -1.235000000    -1.382000000
H    -2.949000000    -1.494000000    -0.747000000
C    -4.464000000    -0.845000000     2.057000000
C    -5.531000000    -0.096000000     1.301000000
H    -5.976000000     0.631000000     1.983000000
H    -6.287000000    -0.792000000     0.929000000
C    -4.983000000     0.683000000     0.124000000
C    -4.570000000     2.026000000     0.324000000
H    -4.762000000     2.464000000     1.301000000
C    -4.646000000     0.115000000    -1.072000000
C    -3.960000000     0.839000000    -2.058000000
H    -3.759000000     0.342000000    -3.004000000
C    -3.646000000     2.151000000    -1.813000000
O    -2.802000000     2.807000000    -2.709000000
C    -1.385000000     2.996000000    -2.468000000
C    -0.492000000     2.800000000    -3.588000000
C    -0.857000000     1.851000000    -4.540000000
H    -1.829000000     1.364000000    -4.570000000
C     0.798000000     3.296000000    -3.596000000
H     1.022000000     3.879000000    -2.706000000
O    -1.265000000     4.333000000    -1.977000000
H    -0.987000000     2.352000000    -1.670000000
C    -3.930000000     2.791000000    -0.629000000
C    -3.580000000     4.179000000    -0.306000000
H    -4.271000000     4.621000000     0.415000000
H    -3.753000000     4.867000000    -1.136000000
C    -2.213000000     4.364000000     0.276000000
C    -1.086000000     4.445000000    -0.584000000
C     0.189000000     4.367000000    -0.066000000
H     0.980000000     4.647000000    -0.757000000
C     0.400000000     4.321000000     1.323000000
O     1.684000000     4.327000000     1.839000000
C     2.329000000     3.055000000     2.171000000
H     1.685000000     2.388000000     1.579000000
C     3.746000000     2.917000000     1.641000000
C     4.440000000     1.818000000     2.058000000
H     4.038000000     1.212000000     2.866000000
C     4.252000000     3.708000000     0.631000000
H     3.686000000     4.505000000     0.154000000
C     5.508000000     3.407000000     0.043000000
O     6.011000000     4.200000000    -1.005000000
C     6.321000000     2.436000000     0.600000000
H     7.320000000     2.261000000     0.209000000
C     5.799000000     1.579000000     1.593000000
O     6.606000000     0.550000000     2.042000000
C     6.388000000    -0.494000000     2.906000000
C     5.507000000    -1.539000000     2.614000000
H     4.995000000    -1.568000000     1.655000000
C     6.998000000    -0.556000000     4.190000000
H     7.707000000     0.168000000     4.583000000
C     6.777000000    -1.599000000     5.069000000
H     7.192000000    -1.608000000     6.074000000
C     6.051000000    -2.718000000     4.645000000
H     5.904000000    -3.680000000     5.128000000
C     5.404000000    -2.651000000     3.432000000
O     4.666000000    -3.766000000     3.012000000
C     3.284000000    -3.858000000     2.769000000
C     2.922000000    -4.807000000     1.861000000
H     3.715000000    -5.300000000     1.304000000
C     1.549000000    -4.989000000     1.583000000
O     1.221000000    -5.935000000     0.549000000
C    -0.073000000    -6.384000000     0.558000000
C    -0.699000000    -6.549000000    -0.702000000
H    -0.235000000    -6.140000000    -1.596000000
C    -0.818000000    -6.784000000     1.697000000
H    -0.288000000    -6.742000000     2.646000000
C    -2.106000000    -7.245000000     1.560000000
H    -2.523000000    -7.549000000     2.517000000
C    -2.773000000    -7.286000000     0.355000000
H    -3.809000000    -7.602000000     0.268000000
C    -2.033000000    -6.909000000    -0.759000000
O    -2.670000000    -6.660000000    -1.953000000
C    -2.874000000    -5.351000000    -2.347000000
C    -2.455000000    -5.053000000    -3.679000000
H    -1.956000000    -5.830000000    -4.252000000
C    -2.614000000    -3.744000000    -4.070000000
O    -2.262000000    -3.491000000    -5.375000000
C    -2.365000000    -2.227000000    -6.038000000
C    -1.291000000    -1.343000000    -6.058000000
H    -0.326000000    -1.709000000    -5.717000000
C    -3.573000000    -1.851000000    -6.626000000
H    -4.408000000    -2.540000000    -6.522000000
C    -3.697000000    -0.633000000    -7.343000000
H    -4.667000000    -0.467000000    -7.805000000
C    -2.636000000     0.222000000    -7.252000000
H    -2.718000000     1.235000000    -7.638000000
C    -1.443000000    -0.118000000    -6.639000000
O    -0.475000000     0.786000000    -6.658000000
C    -0.043000000     1.635000000    -5.617000000
C     1.208000000     2.243000000    -5.628000000
H     1.839000000     2.019000000    -6.484000000
C     1.705000000     3.005000000    -4.597000000
O     2.953000000     3.525000000    -4.716000000
C     3.705000000     4.390000000    -3.876000000
C     3.860000000     5.695000000    -4.213000000
H     3.372000000     6.178000000    -5.056000000
C     4.814000000     6.516000000    -3.613000000
H     5.061000000     7.546000000    -3.855000000
C     5.572000000     5.992000000    -2.588000000
H     6.201000000     6.707000000    -2.063000000
C     5.314000000     4.681000000    -2.120000000
C     4.478000000     3.798000000    -2.849000000
H     4.316000000     2.771000000    -2.529000000
C     0.723000000    -0.472000000    -2.227000000
H     0.567000000    -0.736000000    -3.270000000
C    -0.411000000    -0.230000000    -1.484000000
H    -1.375000000    -0.205000000    -1.988000000
C    -0.369000000    -0.023000000    -0.146000000
H    -1.278000000     0.099000000     0.400000000
C     0.862000000    -0.041000000     0.562000000
H     0.853000000    -0.070000000     1.649000000
C     2.030000000    -0.292000000    -0.166000000
H     3.022000000    -0.336000000     0.276000000
C     1.982000000    -0.557000000    -1.552000000
C     3.254000000    -0.703000000    -2.384000000
O     4.331000000    -0.620000000    -1.909000000
O     3.193000000    -0.976000000    -3.578000000
O     6.450000000    -0.763000000    -0.491000000
H     6.728000000    -0.066000000     0.103000000
H     5.734000000    -0.377000000    -0.995000000
O     2.416000000    -2.443000000    -5.612000000
H     1.980000000    -1.706000000    -6.040000000
H     2.872000000    -2.052000000    -4.866000000
O     3.902000000    -5.201000000    -4.679000000
H     4.050000000    -4.285000000    -4.915000000
H     2.993000000    -5.227000000    -4.378000000
O     5.499000000     1.982000000    -6.032000000
H     5.909000000     1.173000000    -5.726000000
H     4.585000000     1.906000000    -5.758000000
O     5.298000000    -2.782000000    -4.181000000
H     4.868000000    -2.107000000    -3.656000000
H     6.229000000    -2.682000000    -3.982000000
O     5.501000000    -3.351000000    -0.379000000
H     5.889000000    -2.477000000    -0.341000000
H     6.126000000    -3.911000000     0.081000000
O     5.835000000    -6.939000000    -0.530000000
H     5.955000000    -7.604000000    -1.209000000
H     5.118000000    -6.393000000    -0.854000000
O     7.644000000    -1.821000000    -2.766000000
H     8.216000000    -2.490000000    -2.390000000
H     7.189000000    -1.443000000    -2.014000000
O     1.516000000    -1.011000000    -8.950000000
H     1.164000000    -0.736000000    -9.797000000
H     1.686000000    -0.192000000    -8.485000000
O     1.078000000    -5.413000000    -4.337000000
H     1.197000000    -6.161000000    -3.752000000
H     0.722000000    -4.725000000    -3.775000000
O     2.091000000    -7.187000000    -2.362000000
H     1.942000000    -7.962000000    -1.821000000
H     2.686000000    -6.645000000    -1.845000000
O     9.621000000     0.434000000    -0.744000000
H    10.159000000    -0.313000000    -1.005000000
H     8.980000000     0.526000000    -1.449000000
O     4.965000000    -3.972000000    -8.225000000
H     4.485000000    -3.762000000    -9.026000000
H     4.904000000    -3.179000000    -7.694000000
O     6.231000000    -0.060000000    -3.967000000
H     6.795000000    -0.727000000    -3.575000000
H     5.426000000    -0.092000000    -3.450000000
O     0.604000000    -3.720000000    -2.304000000
H     0.354000000    -3.668000000    -1.381000000
H     1.561000000    -3.750000000    -2.292000000
O     3.979000000    -5.160000000    -1.849000000
H     4.331000000    -5.149000000    -2.739000000
H     4.128000000    -4.274000000    -1.521000000
O     5.323000000    -1.332000000    -6.737000000
H     5.469000000    -1.618000000    -5.836000000
H     4.978000000    -0.443000000    -6.653000000
O     1.377000000    -5.656000000    -7.064000000
H     1.726000000    -6.508000000    -6.800000000
H     1.369000000    -5.140000000    -6.258000000
O     8.748000000     0.998000000    -3.293000000
H     7.809000000     0.921000000    -3.461000000
H     9.022000000     1.756000000    -3.808000000
