215
-1486.91178
C     4.439000000    -2.719000000    -0.969000000
H     3.783000000    -3.574000000    -1.113000000
C     4.467000000    -2.146000000     0.299000000
C     5.310000000    -1.050000000     0.566000000
H     5.261000000    -0.457000000     1.476000000
C     3.376000000    -2.500000000     1.243000000
O     3.065000000    -3.872000000     1.231000000
H     2.444000000    -1.960000000     1.018000000
O     3.803000000    -2.148000000     2.585000000
C     2.905000000    -1.616000000     3.461000000
C     2.903000000    -0.243000000     3.650000000
H     3.708000000     0.337000000     3.207000000
C     1.824000000     0.419000000     4.225000000
O     1.888000000     1.800000000     4.205000000
C     0.813000000    -0.307000000     4.817000000
C    -0.327000000     0.489000000     5.450000000
H    -0.696000000    -0.195000000     6.216000000
C    -1.389000000     0.966000000     4.477000000
C    -2.557000000     0.176000000     4.215000000
H    -2.601000000    -0.799000000     4.693000000
H     0.124000000     1.336000000     5.972000000
C     0.857000000    -1.728000000     4.780000000
H     0.058000000    -2.314000000     5.228000000
C     1.836000000    -2.360000000     4.021000000
C     1.722000000    -3.858000000     3.719000000
H     1.151000000    -4.384000000     4.487000000
H     2.650000000    -4.429000000     3.795000000
C     0.991000000    -4.108000000     2.442000000
C    -0.387000000    -4.366000000     2.410000000
H    -0.916000000    -4.319000000     3.359000000
C     1.734000000    -4.171000000     1.240000000
C     1.038000000    -4.444000000     0.046000000
H     1.520000000    -4.695000000    -0.895000000
C    -0.372000000    -4.624000000     0.033000000
O    -1.038000000    -4.650000000    -1.144000000
C    -1.647000000    -3.407000000    -1.540000000
C    -1.412000000    -3.227000000    -3.069000000
C    -2.408000000    -2.668000000    -3.852000000
H    -3.262000000    -2.277000000    -3.305000000
C    -0.201000000    -3.662000000    -3.686000000
H     0.554000000    -4.141000000    -3.069000000
O    -3.098000000    -3.552000000    -1.352000000
H    -1.412000000    -2.508000000    -0.951000000
C    -1.041000000    -4.623000000     1.252000000
C    -2.558000000    -4.711000000     1.304000000
H    -2.892000000    -5.059000000     2.284000000
H    -2.871000000    -5.466000000     0.580000000
C    -3.254000000    -3.395000000     1.041000000
C    -3.659000000    -2.548000000     2.127000000
H    -3.460000000    -2.830000000     3.157000000
C    -3.595000000    -2.988000000    -0.266000000
C    -4.179000000    -1.761000000    -0.533000000
H    -4.372000000    -1.276000000    -1.487000000
C    -4.490000000    -0.914000000     0.552000000
O    -4.873000000     0.375000000     0.155000000
C    -3.922000000     1.470000000     0.380000000
C    -3.927000000     2.400000000    -0.821000000
C    -3.993000000     1.883000000    -2.143000000
H    -4.032000000     0.816000000    -2.344000000
C    -3.766000000     3.773000000    -0.628000000
H    -3.562000000     4.122000000     0.381000000
O    -4.211000000     2.066000000     1.630000000
H    -2.899000000     1.072000000     0.453000000
C    -4.301000000    -1.274000000     1.877000000
C    -4.737000000    -0.406000000     2.990000000
H    -4.973000000    -0.988000000     3.883000000
H    -5.672000000     0.073000000     2.692000000
C    -3.513000000     0.516000000     3.304000000
C    -3.417000000     1.751000000     2.765000000
C    -2.280000000     2.470000000     2.891000000
H    -2.122000000     3.331000000     2.246000000
C    -1.247000000     2.113000000     3.735000000
O    -0.118000000     2.951000000     3.903000000
C     1.024000000     2.437000000     3.273000000
H     0.732000000     1.605000000     2.616000000
C     1.667000000     3.531000000     2.370000000
C     3.068000000     3.501000000     2.127000000
H     3.712000000     2.677000000     2.423000000
C     0.826000000     4.549000000     1.870000000
H    -0.245000000     4.469000000     2.035000000
C     1.421000000     5.603000000     1.173000000
O     0.665000000     6.578000000     0.582000000
C     2.814000000     5.579000000     0.923000000
H     3.222000000     6.421000000     0.370000000
C     3.621000000     4.571000000     1.390000000
O     4.975000000     4.562000000     1.119000000
C     5.832000000     3.510000000     1.436000000
C     5.877000000     2.307000000     0.662000000
H     5.286000000     2.246000000    -0.247000000
C     6.656000000     3.655000000     2.540000000
H     6.592000000     4.577000000     3.112000000
C     7.594000000     2.648000000     2.844000000
H     8.297000000     2.857000000     3.646000000
C     7.795000000     1.574000000     1.916000000
H     8.499000000     0.749000000     1.995000000
C     6.902000000     1.370000000     0.891000000
O     7.146000000     0.416000000    -0.074000000
C     6.217000000    -0.571000000    -0.394000000
C     6.157000000    -1.133000000    -1.697000000
H     6.581000000    -0.609000000    -2.550000000
C     5.271000000    -2.232000000    -1.968000000
O     5.060000000    -2.710000000    -3.297000000
C     4.153000000    -3.644000000    -3.769000000
C     3.039000000    -3.181000000    -4.461000000
H     2.866000000    -2.116000000    -4.595000000
C     4.363000000    -5.042000000    -3.572000000
H     5.149000000    -5.388000000    -2.906000000
C     3.509000000    -5.968000000    -4.137000000
H     3.631000000    -7.012000000    -3.860000000
C     2.384000000    -5.589000000    -4.835000000
H     1.708000000    -6.256000000    -5.364000000
C     2.185000000    -4.179000000    -4.937000000
O     1.143000000    -3.729000000    -5.725000000
C    -0.039000000    -3.417000000    -5.073000000
C    -1.103000000    -2.926000000    -5.820000000
H    -0.920000000    -2.856000000    -6.889000000
C    -2.259000000    -2.502000000    -5.225000000
O    -3.354000000    -2.127000000    -5.946000000
C    -4.131000000    -1.008000000    -5.642000000
C    -3.635000000     0.250000000    -5.324000000
H    -2.571000000     0.331000000    -5.120000000
C    -5.540000000    -1.089000000    -5.789000000
H    -6.065000000    -1.951000000    -6.193000000
C    -6.366000000     0.033000000    -5.724000000
H    -7.376000000    -0.114000000    -6.097000000
C    -5.841000000     1.237000000    -5.360000000
H    -6.478000000     2.114000000    -5.283000000
C    -4.464000000     1.351000000    -5.035000000
O    -3.891000000     2.514000000    -4.579000000
C    -3.977000000     2.850000000    -3.215000000
C    -3.776000000     4.154000000    -3.006000000
H    -3.643000000     4.845000000    -3.834000000
C    -3.640000000     4.678000000    -1.726000000
O    -3.547000000     6.008000000    -1.472000000
C    -2.806000000     6.511000000    -0.417000000
C    -3.395000000     7.203000000     0.658000000
H    -4.459000000     7.422000000     0.651000000
C    -2.625000000     7.520000000     1.728000000
H    -3.118000000     7.948000000     2.597000000
C    -1.282000000     7.212000000     1.768000000
H    -0.620000000     7.387000000     2.612000000
C    -0.691000000     6.730000000     0.671000000
C    -1.420000000     6.270000000    -0.479000000
H    -0.888000000     5.841000000    -1.325000000
C     0.035000000    -0.032000000    -1.913000000
H    -0.586000000    -0.159000000    -2.796000000
C    -0.521000000    -0.126000000    -0.682000000
H    -1.587000000    -0.230000000    -0.498000000
C     0.258000000     0.117000000     0.427000000
H    -0.011000000     0.041000000     1.534000000
C     1.642000000     0.243000000     0.321000000
H     2.218000000     0.401000000     1.229000000
C     2.240000000     0.375000000    -0.928000000
H     3.320000000     0.471000000    -1.007000000
C     1.462000000     0.145000000    -2.082000000
C     2.053000000     0.376000000    -3.484000000
O     3.197000000     0.862000000    -3.531000000
O     1.400000000     0.236000000    -4.516000000
O     1.440000000     5.844000000    -3.175000000
H     2.045000000     5.119000000    -3.019000000
H     0.623000000     5.422000000    -3.441000000
O     5.652000000     2.082000000    -3.082000000
H     5.394000000     2.505000000    -3.901000000
H     5.007000000     1.385000000    -2.959000000
O     2.774000000     2.188000000    -6.025000000
H     2.515000000     1.564000000    -5.347000000
H     2.569000000     1.746000000    -6.849000000
O     1.956000000    -4.344000000    -8.326000000
H     1.573000000    -3.702000000    -8.924000000
H     1.812000000    -3.975000000    -7.455000000
O     4.119000000    -1.463000000    -7.197000000
H     4.594000000    -0.938000000    -6.553000000
H     3.244000000    -1.074000000    -7.224000000
O     8.400000000     2.258000000    -2.848000000
H     7.525000000     2.067000000    -2.512000000
H     8.684000000     3.027000000    -2.354000000
O     6.118000000     1.374000000    -7.733000000
H     5.363000000     0.829000000    -7.511000000
H     6.702000000     1.292000000    -6.979000000
O    -0.840000000     4.360000000    -3.290000000
H    -1.414000000     4.941000000    -3.790000000
H    -0.773000000     3.570000000    -3.827000000
O    -1.124000000     0.096000000    -7.950000000
H    -1.570000000    -0.274000000    -8.711000000
H    -1.551000000     0.941000000    -7.809000000
O     5.251000000     0.053000000    -5.277000000
H     4.528000000     0.441000000    -4.783000000
H     6.034000000     0.288000000    -4.778000000
O    -0.156000000     3.086000000    -0.931000000
H    -0.562000000     2.222000000    -0.865000000
H    -0.807000000     3.622000000    -1.385000000
O     7.862000000     1.712000000    -5.508000000
H     8.799000000     1.531000000    -5.433000000
H     7.606000000     2.014000000    -4.637000000
O    -2.432000000     2.571000000    -7.160000000
H    -3.352000000     2.744000000    -7.357000000
H    -2.398000000     2.509000000    -6.206000000
O     2.684000000     3.374000000    -2.866000000
H     2.748000000     2.472000000    -3.178000000
H     2.119000000     3.322000000    -2.095000000
O     5.042000000     3.456000000    -5.679000000
H     4.125000000     3.234000000    -5.844000000
H     5.529000000     2.977000000    -6.349000000
O     4.843000000     5.671000000    -3.906000000
H     4.556000000     5.121000000    -3.177000000
H     5.051000000     5.051000000    -4.606000000
O    -0.407000000     2.126000000    -5.013000000
H     0.279000000     1.508000000    -4.761000000
H    -0.038000000     2.602000000    -5.757000000
O     1.288000000    -0.642000000    -7.011000000
H     0.492000000    -0.408000000    -7.487000000
H     1.130000000    -0.343000000    -6.116000000
O     0.105000000     4.125000000    -7.807000000
H    -0.739000000     3.675000000    -7.815000000
H     0.509000000     3.893000000    -8.643000000
