215
-1457.18687
C     0.017000000    -4.384000000     3.059000000
H    -0.971000000    -4.443000000     2.609000000
C     0.501000000    -3.154000000     3.595000000
C     1.878000000    -2.970000000     3.799000000
H     2.236000000    -2.068000000     4.289000000
C    -0.416000000    -1.914000000     3.758000000
O    -1.769000000    -2.295000000     4.023000000
H    -0.314000000    -1.252000000     2.885000000
O    -0.061000000    -1.116000000     4.859000000
C    -0.180000000     0.289000000     4.790000000
C     0.986000000     0.955000000     4.545000000
H     1.957000000     0.466000000     4.559000000
C     0.953000000     2.288000000     4.106000000
O     2.112000000     2.924000000     3.732000000
C    -0.261000000     2.999000000     4.131000000
C    -0.387000000     4.434000000     3.546000000
H    -1.276000000     4.876000000     4.001000000
C    -0.414000000     4.465000000     2.061000000
C    -1.672000000     4.592000000     1.369000000
H    -2.596000000     4.743000000     1.922000000
H     0.394000000     5.061000000     3.981000000
C    -1.443000000     2.302000000     4.449000000
H    -2.395000000     2.826000000     4.485000000
C    -1.406000000     0.970000000     4.722000000
C    -2.684000000     0.269000000     4.955000000
H    -3.437000000     0.968000000     5.323000000
H    -2.532000000    -0.401000000     5.803000000
C    -3.231000000    -0.473000000     3.702000000
C    -4.155000000     0.137000000     2.868000000
H    -4.573000000     1.100000000     3.149000000
C    -2.723000000    -1.715000000     3.322000000
C    -3.166000000    -2.379000000     2.159000000
H    -2.830000000    -3.312000000     1.713000000
C    -4.045000000    -1.705000000     1.289000000
O    -4.372000000    -2.268000000     0.102000000
C    -3.736000000    -1.737000000    -1.173000000
C    -3.337000000    -2.837000000    -2.106000000
C    -3.324000000    -2.567000000    -3.506000000
H    -3.526000000    -1.570000000    -3.888000000
C    -2.819000000    -4.109000000    -1.669000000
H    -2.990000000    -4.277000000    -0.609000000
O    -4.496000000    -0.816000000    -1.881000000
H    -2.809000000    -1.251000000    -0.836000000
C    -4.561000000    -0.421000000     1.624000000
C    -5.587000000     0.274000000     0.729000000
H    -6.081000000     0.995000000     1.384000000
H    -6.367000000    -0.408000000     0.383000000
C    -4.770000000     1.089000000    -0.318000000
C    -4.408000000     2.411000000    -0.093000000
H    -4.645000000     2.929000000     0.833000000
C    -4.257000000     0.512000000    -1.503000000
C    -3.464000000     1.204000000    -2.410000000
H    -3.153000000     0.717000000    -3.332000000
C    -3.174000000     2.500000000    -2.213000000
O    -2.269000000     2.978000000    -3.107000000
C    -0.881000000     3.024000000    -2.701000000
C     0.019000000     2.638000000    -3.869000000
C    -0.467000000     1.742000000    -4.909000000
H    -1.489000000     1.387000000    -4.801000000
C     1.388000000     2.970000000    -3.856000000
H     1.726000000     3.543000000    -2.997000000
O    -0.588000000     4.376000000    -2.128000000
H    -0.667000000     2.261000000    -1.939000000
C    -3.697000000     3.170000000    -1.075000000
C    -3.123000000     4.553000000    -0.734000000
H    -3.803000000     5.109000000    -0.086000000
H    -3.057000000     5.123000000    -1.663000000
C    -1.778000000     4.595000000    -0.005000000
C    -0.580000000     4.556000000    -0.764000000
C     0.617000000     4.473000000    -0.048000000
H     1.566000000     4.493000000    -0.577000000
C     0.754000000     4.337000000     1.314000000
O     2.035000000     4.214000000     1.840000000
C     2.408000000     2.927000000     2.310000000
H     1.724000000     2.287000000     1.733000000
C     3.805000000     2.450000000     1.886000000
C     4.535000000     1.474000000     2.575000000
H     4.189000000     1.251000000     3.581000000
C     4.368000000     2.900000000     0.660000000
H     3.779000000     3.524000000    -0.009000000
C     5.618000000     2.501000000     0.249000000
O     6.215000000     2.972000000    -0.928000000
C     6.334000000     1.651000000     1.021000000
H     7.337000000     1.334000000     0.749000000
C     5.789000000     1.127000000     2.176000000
O     6.539000000     0.296000000     2.999000000
C     5.899000000    -0.646000000     3.741000000
C     5.220000000    -1.663000000     3.082000000
H     5.168000000    -1.811000000     2.007000000
C     6.088000000    -0.608000000     5.103000000
H     6.598000000     0.252000000     5.530000000
C     5.564000000    -1.566000000     5.909000000
H     5.677000000    -1.594000000     6.990000000
C     4.924000000    -2.655000000     5.349000000
H     4.539000000    -3.472000000     5.953000000
C     4.728000000    -2.668000000     3.972000000
O     4.122000000    -3.774000000     3.468000000
C     2.755000000    -3.966000000     3.358000000
C     2.259000000    -5.215000000     3.048000000
H     2.913000000    -6.044000000     2.791000000
C     0.923000000    -5.420000000     2.793000000
O     0.551000000    -6.524000000     2.040000000
C    -0.595000000    -6.693000000     1.275000000
C    -0.582000000    -6.415000000    -0.081000000
H     0.303000000    -6.140000000    -0.650000000
C    -1.778000000    -7.086000000     1.904000000
H    -1.790000000    -7.319000000     2.966000000
C    -2.906000000    -7.412000000     1.224000000
H    -3.818000000    -7.820000000     1.652000000
C    -2.951000000    -7.142000000    -0.090000000
H    -3.848000000    -7.485000000    -0.600000000
C    -1.823000000    -6.670000000    -0.751000000
O    -1.921000000    -6.369000000    -2.100000000
C    -2.401000000    -5.140000000    -2.512000000
C    -2.518000000    -4.854000000    -3.872000000
H    -2.254000000    -5.665000000    -4.546000000
C    -2.919000000    -3.604000000    -4.370000000
O    -2.862000000    -3.448000000    -5.717000000
C    -2.605000000    -2.160000000    -6.285000000
C    -1.393000000    -1.474000000    -6.143000000
H    -0.592000000    -1.958000000    -5.590000000
C    -3.545000000    -1.644000000    -7.190000000
H    -4.505000000    -2.144000000    -7.285000000
C    -3.265000000    -0.502000000    -7.900000000
H    -3.969000000    -0.114000000    -8.631000000
C    -2.041000000     0.133000000    -7.732000000
H    -1.868000000     1.005000000    -8.358000000
C    -1.085000000    -0.284000000    -6.821000000
O     0.106000000     0.332000000    -6.797000000
C     0.457000000     1.229000000    -5.842000000
C     1.771000000     1.740000000    -5.869000000
H     2.474000000     1.578000000    -6.682000000
C     2.249000000     2.556000000    -4.877000000
O     3.574000000     2.988000000    -4.887000000
C     4.115000000     3.772000000    -3.934000000
C     4.702000000     4.971000000    -4.278000000
H     4.387000000     5.486000000    -5.182000000
C     5.623000000     5.610000000    -3.456000000
H     6.173000000     6.507000000    -3.726000000
C     6.034000000     5.010000000    -2.278000000
H     6.756000000     5.481000000    -1.616000000
C     5.629000000     3.700000000    -1.979000000
C     4.645000000     3.098000000    -2.800000000
H     4.305000000     2.073000000    -2.679000000
C     0.953000000    -0.682000000    -2.449000000
H     0.826000000    -0.866000000    -3.512000000
C    -0.142000000    -0.241000000    -1.729000000
H    -1.088000000    -0.172000000    -2.260000000
C    -0.122000000     0.004000000    -0.358000000
H    -1.013000000     0.313000000     0.155000000
C     1.068000000    -0.171000000     0.298000000
H     1.118000000     0.057000000     1.360000000
C     2.260000000    -0.479000000    -0.376000000
H     3.174000000    -0.658000000     0.184000000
C     2.204000000    -0.810000000    -1.756000000
C     3.435000000    -1.158000000    -2.503000000
O     4.432000000    -0.818000000    -1.966000000
O     3.432000000    -1.882000000    -3.476000000
O     1.714000000    -5.924000000    -3.939000000
H     2.402000000    -5.830000000    -3.280000000
H     1.648000000    -5.059000000    -4.342000000
O     5.877000000    -2.490000000    -0.704000000
H     5.983000000    -3.255000000    -1.270000000
H     5.376000000    -1.869000000    -1.232000000
O     9.456000000    -2.962000000    -1.373000000
H     9.503000000    -3.897000000    -1.573000000
H     8.786000000    -2.624000000    -1.967000000
O     8.248000000    -1.568000000     0.969000000
H     8.553000000    -2.217000000     0.335000000
H     7.297000000    -1.555000000     0.860000000
O     7.226000000    -1.701000000    -6.941000000
H     7.818000000    -2.452000000    -6.983000000
H     7.692000000    -1.058000000    -6.406000000
O     1.739000000    -3.319000000    -5.016000000
H     2.330000000    -3.291000000    -5.769000000
H     2.249000000    -2.947000000    -4.297000000
O     3.551000000    -4.430000000    -7.042000000
H     4.198000000    -3.875000000    -7.478000000
H     3.617000000    -5.273000000    -7.491000000
O     4.475000000    -1.545000000    -6.159000000
H     3.997000000    -1.569000000    -5.330000000
H     5.391000000    -1.671000000    -5.911000000
O     8.101000000     3.302000000    -3.920000000
H     8.005000000     4.041000000    -4.521000000
H     7.232000000     2.902000000    -3.894000000
O     5.915000000     1.503000000    -6.130000000
H     5.479000000     2.024000000    -6.805000000
H     5.330000000     0.760000000    -5.985000000
O     5.152000000    -3.856000000    -3.178000000
H     4.642000000    -3.046000000    -3.173000000
H     4.566000000    -4.511000000    -2.799000000
O     3.395000000    -5.606000000    -1.791000000
H     4.006000000    -6.208000000    -1.368000000
H     2.822000000    -5.309000000    -1.084000000
O     7.735000000    -2.204000000    -3.541000000
H     6.915000000    -2.485000000    -3.948000000
H     7.522000000    -1.370000000    -3.123000000
O     6.849000000     0.578000000    -2.573000000
H     5.970000000     0.292000000    -2.327000000
H     7.043000000     1.298000000    -1.973000000
O     3.210000000    -1.275000000    -8.726000000
H     3.617000000    -1.218000000    -7.861000000
H     3.503000000    -0.485000000    -9.180000000
O     1.646000000    -3.717000000     0.169000000
H     1.148000000    -3.763000000     0.985000000
H     1.493000000    -2.829000000    -0.155000000
O     8.352000000     0.180000000    -5.162000000
H     7.898000000     0.948000000    -5.510000000
H     8.049000000     0.112000000    -4.257000000
O     1.032000000    -3.205000000    -8.372000000
H     1.757000000    -2.589000000    -8.476000000
H     1.058000000    -3.452000000    -7.448000000
O     7.039000000    -5.399000000    -4.718000000
H     6.469000000    -4.974000000    -4.077000000
H     7.399000000    -6.155000000    -4.255000000
