215
-1452.60647
C     0.016000000    -4.651000000     2.875000000
H    -1.049000000    -4.745000000     2.678000000
C     0.506000000    -3.434000000     3.211000000
C     1.914000000    -3.207000000     3.244000000
H     2.353000000    -2.233000000     3.447000000
C    -0.403000000    -2.221000000     3.517000000
O    -1.776000000    -2.644000000     3.722000000
H    -0.378000000    -1.541000000     2.652000000
O    -0.011000000    -1.499000000     4.713000000
C    -0.084000000    -0.111000000     4.589000000
C     1.092000000     0.567000000     4.246000000
H     2.051000000     0.069000000     4.358000000
C     1.110000000     1.970000000     4.118000000
O     2.312000000     2.484000000     3.737000000
C    -0.131000000     2.638000000     4.122000000
C    -0.228000000     4.141000000     3.914000000
H    -1.094000000     4.561000000     4.429000000
C    -0.272000000     4.381000000     2.332000000
C    -1.529000000     4.648000000     1.727000000
H    -2.462000000     4.658000000     2.285000000
H     0.701000000     4.677000000     4.121000000
C    -1.268000000     1.909000000     4.373000000
H    -2.166000000     2.517000000     4.293000000
C    -1.285000000     0.559000000     4.658000000
C    -2.654000000    -0.167000000     4.899000000
H    -3.358000000     0.404000000     5.508000000
H    -2.496000000    -1.022000000     5.560000000
C    -3.211000000    -0.790000000     3.593000000
C    -4.162000000     0.001000000     2.932000000
H    -4.435000000     0.929000000     3.428000000
C    -2.781000000    -1.939000000     3.105000000
C    -3.244000000    -2.419000000     1.884000000
H    -2.831000000    -3.331000000     1.461000000
C    -4.169000000    -1.637000000     1.202000000
O    -4.413000000    -2.122000000    -0.004000000
C    -3.700000000    -1.527000000    -1.066000000
C    -3.242000000    -2.609000000    -2.051000000
C    -3.139000000    -2.367000000    -3.418000000
H    -3.460000000    -1.438000000    -3.883000000
C    -2.958000000    -3.920000000    -1.597000000
H    -2.957000000    -4.108000000    -0.527000000
O    -4.404000000    -0.487000000    -1.618000000
H    -2.816000000    -1.006000000    -0.668000000
C    -4.597000000    -0.407000000     1.680000000
C    -5.481000000     0.500000000     0.830000000
H    -5.907000000     1.242000000     1.509000000
H    -6.305000000     0.014000000     0.304000000
C    -4.747000000     1.404000000    -0.154000000
C    -4.414000000     2.768000000     0.161000000
H    -4.820000000     3.275000000     1.033000000
C    -4.299000000     0.861000000    -1.292000000
C    -3.442000000     1.563000000    -2.190000000
H    -3.047000000     0.956000000    -3.001000000
C    -3.095000000     2.881000000    -1.930000000
O    -2.291000000     3.514000000    -2.812000000
C    -0.938000000     3.496000000    -2.506000000
C    -0.054000000     3.170000000    -3.656000000
C    -0.339000000     2.168000000    -4.567000000
H    -1.257000000     1.601000000    -4.430000000
C     1.134000000     3.906000000    -3.839000000
H     1.443000000     4.595000000    -3.057000000
O    -0.628000000     4.813000000    -1.877000000
H    -0.809000000     2.626000000    -1.845000000
C    -3.629000000     3.460000000    -0.700000000
C    -3.010000000     4.833000000    -0.367000000
H    -3.812000000     5.430000000     0.072000000
H    -2.858000000     5.213000000    -1.380000000
C    -1.654000000     4.834000000     0.374000000
C    -0.561000000     4.781000000    -0.484000000
C     0.671000000     4.540000000     0.128000000
H     1.547000000     4.404000000    -0.502000000
C     0.871000000     4.343000000     1.496000000
O     2.149000000     3.966000000     1.879000000
C     2.487000000     2.627000000     2.302000000
H     1.819000000     2.031000000     1.662000000
C     3.852000000     2.252000000     1.795000000
C     4.628000000     1.243000000     2.424000000
H     4.254000000     0.770000000     3.328000000
C     4.253000000     2.727000000     0.532000000
H     3.679000000     3.471000000    -0.014000000
C     5.395000000     2.238000000    -0.092000000
O     5.839000000     2.475000000    -1.363000000
C     6.218000000     1.345000000     0.559000000
H     7.176000000     1.103000000     0.105000000
C     5.808000000     0.829000000     1.779000000
O     6.574000000    -0.172000000     2.347000000
C     6.105000000    -1.182000000     3.151000000
C     5.357000000    -2.200000000     2.590000000
H     5.041000000    -2.109000000     1.554000000
C     6.299000000    -1.219000000     4.572000000
H     6.830000000    -0.385000000     5.023000000
C     5.728000000    -2.149000000     5.373000000
H     5.711000000    -2.071000000     6.457000000
C     4.875000000    -3.083000000     4.827000000
H     4.390000000    -3.895000000     5.363000000
C     4.790000000    -3.172000000     3.419000000
O     4.069000000    -4.174000000     2.861000000
C     2.738000000    -4.280000000     2.895000000
C     2.219000000    -5.563000000     2.610000000
H     2.875000000    -6.412000000     2.436000000
C     0.835000000    -5.765000000     2.593000000
O     0.209000000    -6.933000000     2.329000000
C    -0.928000000    -6.961000000     1.543000000
C    -0.907000000    -6.408000000     0.293000000
H     0.048000000    -6.031000000    -0.062000000
C    -2.141000000    -7.438000000     2.047000000
H    -2.173000000    -7.798000000     3.072000000
C    -3.297000000    -7.505000000     1.284000000
H    -4.232000000    -7.934000000     1.633000000
C    -3.239000000    -6.969000000    -0.024000000
H    -4.137000000    -7.100000000    -0.622000000
C    -2.039000000    -6.497000000    -0.537000000
O    -2.025000000    -6.144000000    -1.858000000
C    -2.381000000    -4.930000000    -2.398000000
C    -2.229000000    -4.621000000    -3.775000000
H    -1.839000000    -5.410000000    -4.413000000
C    -2.585000000    -3.341000000    -4.253000000
O    -2.423000000    -3.154000000    -5.639000000
C    -2.251000000    -1.934000000    -6.219000000
C    -1.114000000    -1.162000000    -5.971000000
H    -0.365000000    -1.600000000    -5.317000000
C    -3.272000000    -1.485000000    -7.082000000
H    -4.076000000    -2.129000000    -7.430000000
C    -3.086000000    -0.259000000    -7.708000000
H    -3.813000000     0.070000000    -8.446000000
C    -1.996000000     0.583000000    -7.436000000
H    -1.986000000     1.567000000    -7.898000000
C    -0.965000000     0.087000000    -6.598000000
O     0.228000000     0.727000000    -6.425000000
C     0.442000000     1.889000000    -5.709000000
C     1.599000000     2.596000000    -5.869000000
H     2.343000000     2.188000000    -6.549000000
C     1.910000000     3.603000000    -4.942000000
O     3.136000000     4.108000000    -5.055000000
C     3.980000000     4.211000000    -4.023000000
C     4.561000000     5.512000000    -3.866000000
H     4.074000000     6.270000000    -4.475000000
C     5.506000000     5.691000000    -2.830000000
H     6.063000000     6.623000000    -2.790000000
C     5.867000000     4.619000000    -2.016000000
H     6.690000000     4.782000000    -1.325000000
C     5.305000000     3.372000000    -2.219000000
C     4.382000000     3.147000000    -3.211000000
H     4.046000000     2.119000000    -3.317000000
C     1.058000000    -0.166000000    -1.896000000
H     0.883000000    -0.107000000    -2.967000000
C     0.037000000    -0.084000000    -1.054000000
H    -0.959000000     0.228000000    -1.357000000
C     0.224000000    -0.183000000     0.387000000
H    -0.465000000     0.108000000     1.181000000
C     1.582000000    -0.412000000     0.831000000
H     1.813000000    -0.409000000     1.894000000
C     2.601000000    -0.570000000    -0.097000000
H     3.635000000    -0.778000000     0.167000000
C     2.333000000    -0.472000000    -1.486000000
C     3.383000000    -0.686000000    -2.589000000
O     4.362000000    -1.333000000    -2.299000000
O     3.215000000    -0.377000000    -3.740000000
O     1.697000000    -5.360000000    -4.769000000
H     0.856000000    -5.048000000    -5.104000000
H     2.313000000    -5.202000000    -5.484000000
O     5.850000000    -3.230000000    -1.205000000
H     5.399000000    -4.059000000    -1.359000000
H     5.283000000    -2.571000000    -1.606000000
O     8.538000000    -2.278000000    -0.579000000
H     8.823000000    -2.358000000    -1.489000000
H     7.592000000    -2.415000000    -0.611000000
O     6.632000000    -3.106000000    -6.466000000
H     6.099000000    -2.333000000    -6.282000000
H     6.569000000    -3.635000000    -5.671000000
O     2.554000000    -2.104000000    -5.914000000
H     3.147000000    -2.838000000    -5.753000000
H     2.681000000    -1.525000000    -5.162000000
O     3.397000000    -4.800000000    -6.831000000
H     3.569000000    -4.558000000    -7.741000000
H     4.203000000    -5.224000000    -6.539000000
O     5.194000000    -0.767000000    -5.510000000
H     4.567000000    -0.663000000    -4.794000000
H     5.224000000     0.093000000    -5.929000000
O     6.329000000     1.657000000    -7.115000000
H     6.774000000     1.433000000    -7.933000000
H     6.033000000     2.558000000    -7.243000000
O     3.893000000    -3.669000000    -3.878000000
H     4.085000000    -2.762000000    -3.641000000
H     3.487000000    -4.040000000    -3.095000000
O     2.918000000    -4.513000000    -1.383000000
H     3.088000000    -5.345000000    -0.941000000
H     2.240000000    -4.094000000    -0.853000000
O     6.685000000    -5.864000000    -1.278000000
H     6.094000000    -6.096000000    -0.562000000
H     7.067000000    -5.028000000    -1.012000000
O     8.806000000    -2.075000000    -3.336000000
H     8.707000000    -2.952000000    -3.707000000
H     7.962000000    -1.652000000    -3.494000000
O     6.568000000     0.191000000    -3.038000000
H     5.899000000    -0.436000000    -2.762000000
H     6.363000000     0.990000000    -2.552000000
O     3.870000000    -0.697000000    -8.148000000
H     3.504000000    -1.254000000    -7.461000000
H     4.784000000    -0.971000000    -8.216000000
O     0.368000000    -3.996000000    -6.774000000
H    -0.183000000    -3.524000000    -7.399000000
H     1.167000000    -3.472000000    -6.716000000
O     0.424000000    -3.252000000    -0.795000000
H    -0.362000000    -3.006000000    -1.284000000
H     0.890000000    -2.427000000    -0.661000000
O     7.947000000     1.829000000    -4.871000000
H     7.423000000     1.862000000    -5.671000000
H     7.580000000     1.099000000    -4.374000000
O     1.288000000    -0.959000000    -8.825000000
H     0.849000000    -0.292000000    -8.298000000
H     2.208000000    -0.900000000    -8.570000000
O     5.309000000    -5.580000000    -5.088000000
H     4.986000000    -4.843000000    -4.570000000
H     4.986000000    -6.355000000    -4.630000000
