215
-1445.50666
C     0.523000000    -4.024000000     2.151000000
H    -0.500000000    -3.874000000     1.815000000
C     1.036000000    -3.126000000     3.118000000
C     2.411000000    -3.091000000     3.375000000
H     2.819000000    -2.361000000     4.069000000
C     0.049000000    -1.982000000     3.630000000
O    -1.329000000    -2.423000000     3.911000000
H    -0.164000000    -1.277000000     2.813000000
O     0.588000000    -1.274000000     4.747000000
C     0.551000000     0.060000000     4.824000000
C     1.713000000     0.695000000     4.505000000
H     2.592000000     0.064000000     4.399000000
C     1.731000000     2.054000000     4.242000000
O     2.889000000     2.639000000     3.624000000
C     0.541000000     2.769000000     4.204000000
C     0.609000000     4.242000000     3.787000000
H    -0.080000000     4.813000000     4.413000000
C     0.297000000     4.504000000     2.287000000
C    -0.978000000     4.650000000     1.816000000
H    -1.814000000     4.590000000     2.508000000
H     1.546000000     4.755000000     4.015000000
C    -0.686000000     2.121000000     4.479000000
H    -1.642000000     2.637000000     4.459000000
C    -0.657000000     0.801000000     4.842000000
C    -2.013000000     0.111000000     5.202000000
H    -2.661000000     0.813000000     5.731000000
H    -1.773000000    -0.737000000     5.848000000
C    -2.796000000    -0.464000000     4.041000000
C    -3.782000000     0.300000000     3.364000000
H    -3.989000000     1.254000000     3.842000000
C    -2.343000000    -1.671000000     3.384000000
C    -2.986000000    -2.138000000     2.216000000
H    -2.756000000    -3.116000000     1.800000000
C    -3.999000000    -1.367000000     1.631000000
O    -4.466000000    -1.931000000     0.401000000
C    -3.996000000    -1.417000000    -0.845000000
C    -3.940000000    -2.485000000    -1.914000000
C    -3.912000000    -2.138000000    -3.254000000
H    -4.017000000    -1.075000000    -3.453000000
C    -3.660000000    -3.820000000    -1.488000000
H    -3.644000000    -4.032000000    -0.422000000
O    -4.900000000    -0.299000000    -1.250000000
H    -2.961000000    -1.105000000    -0.645000000
C    -4.384000000    -0.117000000     2.169000000
C    -5.377000000     0.747000000     1.413000000
H    -5.747000000     1.554000000     2.050000000
H    -6.282000000     0.215000000     1.115000000
C    -4.665000000     1.634000000     0.307000000
C    -4.159000000     2.874000000     0.572000000
H    -4.166000000     3.248000000     1.593000000
C    -4.526000000     1.011000000    -0.911000000
C    -3.747000000     1.713000000    -1.867000000
H    -3.581000000     1.317000000    -2.866000000
C    -3.275000000     3.017000000    -1.656000000
O    -2.441000000     3.526000000    -2.530000000
C    -1.018000000     3.276000000    -2.318000000
C    -0.443000000     2.676000000    -3.628000000
C    -1.340000000     2.397000000    -4.696000000
H    -2.417000000     2.519000000    -4.611000000
C     0.917000000     2.425000000    -3.792000000
H     1.530000000     2.688000000    -2.934000000
O    -0.307000000     4.444000000    -1.831000000
H    -0.872000000     2.550000000    -1.505000000
C    -3.362000000     3.600000000    -0.397000000
C    -2.691000000     4.901000000    -0.024000000
H    -3.353000000     5.506000000     0.599000000
H    -2.611000000     5.437000000    -0.972000000
C    -1.250000000     4.712000000     0.469000000
C    -0.182000000     4.633000000    -0.449000000
C     1.094000000     4.482000000     0.037000000
H     1.872000000     4.291000000    -0.698000000
C     1.360000000     4.455000000     1.387000000
O     2.638000000     4.011000000     1.697000000
C     2.905000000     2.678000000     2.167000000
H     2.158000000     2.014000000     1.707000000
C     4.254000000     2.144000000     1.651000000
C     5.148000000     1.416000000     2.412000000
H     5.037000000     1.469000000     3.492000000
C     4.345000000     2.158000000     0.308000000
H     3.541000000     2.528000000    -0.322000000
C     5.443000000     1.589000000    -0.352000000
O     5.698000000     1.557000000    -1.673000000
C     6.416000000     0.892000000     0.404000000
H     7.210000000     0.324000000    -0.075000000
C     6.237000000     0.779000000     1.780000000
O     7.074000000     0.016000000     2.553000000
C     6.786000000    -1.189000000     3.269000000
C     5.641000000    -1.950000000     2.949000000
H     5.046000000    -1.695000000     2.076000000
C     7.417000000    -1.501000000     4.419000000
H     8.215000000    -0.892000000     4.834000000
C     7.092000000    -2.657000000     5.114000000
H     7.604000000    -2.911000000     6.038000000
C     6.113000000    -3.540000000     4.666000000
H     5.985000000    -4.537000000     5.080000000
C     5.445000000    -3.199000000     3.553000000
O     4.607000000    -4.086000000     2.940000000
C     3.226000000    -3.990000000     2.725000000
C     2.718000000    -4.796000000     1.746000000
H     3.399000000    -5.504000000     1.282000000
C     1.369000000    -4.862000000     1.487000000
O     0.990000000    -5.732000000     0.523000000
C    -0.328000000    -6.205000000     0.349000000
C    -0.959000000    -5.949000000    -0.801000000
H    -0.456000000    -5.530000000    -1.669000000
C    -0.972000000    -6.845000000     1.413000000
H    -0.360000000    -7.115000000     2.270000000
C    -2.295000000    -7.175000000     1.329000000
H    -2.792000000    -7.650000000     2.172000000
C    -3.048000000    -6.845000000     0.154000000
H    -4.095000000    -7.103000000     0.018000000
C    -2.305000000    -6.295000000    -0.905000000
O    -2.960000000    -6.022000000    -2.123000000
C    -3.360000000    -4.733000000    -2.484000000
C    -3.334000000    -4.386000000    -3.817000000
H    -2.835000000    -5.173000000    -4.377000000
C    -3.617000000    -3.086000000    -4.270000000
O    -3.483000000    -2.686000000    -5.593000000
C    -3.771000000    -1.409000000    -6.074000000
C    -2.719000000    -0.534000000    -6.184000000
H    -1.704000000    -0.776000000    -5.879000000
C    -5.084000000    -0.899000000    -6.246000000
H    -5.950000000    -1.544000000    -6.123000000
C    -5.272000000     0.429000000    -6.702000000
H    -6.249000000     0.899000000    -6.789000000
C    -4.137000000     1.250000000    -6.952000000
H    -4.254000000     2.269000000    -7.311000000
C    -2.871000000     0.797000000    -6.632000000
O    -1.788000000     1.578000000    -6.952000000
C    -0.913000000     1.930000000    -5.935000000
C     0.484000000     1.694000000    -6.091000000
H     0.894000000     1.315000000    -7.023000000
C     1.403000000     1.903000000    -5.006000000
O     2.734000000     1.828000000    -5.253000000
C     3.654000000     2.412000000    -4.460000000
C     3.804000000     3.815000000    -4.489000000
H     3.202000000     4.442000000    -5.141000000
C     4.554000000     4.450000000    -3.529000000
H     4.627000000     5.534000000    -3.506000000
C     5.184000000     3.725000000    -2.534000000
H     5.867000000     4.208000000    -1.840000000
C     5.067000000     2.336000000    -2.603000000
C     4.367000000     1.658000000    -3.601000000
H     4.240000000     0.579000000    -3.552000000
C     1.053000000    -1.056000000    -2.033000000
H     0.912000000    -1.269000000    -3.089000000
C     0.190000000    -0.287000000    -1.295000000
H    -0.753000000     0.060000000    -1.710000000
C     0.530000000     0.011000000     0.025000000
H    -0.226000000     0.473000000     0.733000000
C     1.686000000    -0.550000000     0.544000000
H     1.830000000    -0.551000000     1.622000000
C     2.579000000    -1.162000000    -0.219000000
H     3.407000000    -1.653000000     0.286000000
C     2.278000000    -1.407000000    -1.562000000
C     3.263000000    -2.145000000    -2.406000000
O     4.249000000    -2.714000000    -1.924000000
O     3.045000000    -2.414000000    -3.615000000
O     0.401000000    -5.912000000    -4.488000000
H     1.193000000    -5.621000000    -4.037000000
H     0.313000000    -5.312000000    -5.229000000
O     4.687000000    -5.991000000    -5.758000000
H     4.046000000    -5.455000000    -6.225000000
H     4.165000000    -6.666000000    -5.324000000
O     7.955000000    -3.876000000    -5.402000000
H     8.796000000    -4.163000000    -5.045000000
H     7.351000000    -3.926000000    -4.661000000
O     6.024000000    -2.292000000    -6.769000000
H     6.597000000    -2.968000000    -6.407000000
H     5.719000000    -1.802000000    -6.004000000
O     5.123000000     1.075000000    -6.840000000
H     5.826000000     0.760000000    -6.273000000
H     4.581000000     1.621000000    -6.270000000
O     0.218000000    -4.108000000    -6.717000000
H     0.670000000    -3.365000000    -6.317000000
H    -0.057000000    -3.787000000    -7.576000000
O     8.880000000    -2.140000000     0.789000000
H     8.774000000    -3.058000000     1.041000000
H     7.997000000    -1.774000000     0.841000000
O     6.652000000    -3.050000000    -0.972000000
H     6.522000000    -3.633000000    -0.224000000
H     5.782000000    -2.964000000    -1.363000000
O     3.718000000    -8.216000000    -1.078000000
H     3.911000000    -7.287000000    -0.949000000
H     3.059000000    -8.229000000    -1.772000000
O     8.721000000    -1.664000000    -1.999000000
H     9.018000000    -1.997000000    -1.152000000
H     7.971000000    -2.214000000    -2.224000000
O     1.524000000    -8.548000000    -3.738000000
H     0.980000000    -7.760000000    -3.726000000
H     0.925000000    -9.256000000    -3.500000000
O     6.342000000    -5.162000000     0.808000000
H     7.083000000    -5.533000000     0.329000000
H     5.976000000    -5.900000000     1.295000000
O     5.946000000    -4.403000000    -3.702000000
H     5.442000000    -4.977000000    -4.280000000
H     5.283000000    -3.909000000    -3.218000000
O     5.796000000    -1.269000000    -4.006000000
H     5.394000000    -2.067000000    -3.661000000
H     5.746000000    -0.644000000    -3.283000000
O     2.088000000    -2.161000000    -6.119000000
H     2.132000000    -1.217000000    -6.273000000
H     2.321000000    -2.264000000    -5.197000000
O     8.094000000    -0.153000000    -5.678000000
H     7.507000000    -0.740000000    -5.202000000
H     8.317000000    -0.632000000    -6.476000000
O     3.718000000    -3.567000000    -7.886000000
H     3.029000000    -3.182000000    -7.344000000
H     4.515000000    -3.108000000    -7.621000000
O     4.468000000    -5.314000000    -1.089000000
H     5.253000000    -5.373000000    -0.544000000
H     4.267000000    -4.378000000    -1.118000000
O     2.624000000    -5.125000000    -3.381000000
H     2.757000000    -4.187000000    -3.515000000
H     3.114000000    -5.324000000    -2.583000000
