215
-1452.31097
C     0.176000000    -3.326000000     3.708000000
H    -0.527000000    -3.470000000     2.892000000
C     0.347000000    -2.013000000     4.180000000
C     1.499000000    -1.620000000     5.007000000
H     1.576000000    -0.570000000     5.279000000
C    -0.755000000    -1.033000000     3.862000000
O    -2.069000000    -1.668000000     3.957000000
H    -0.521000000    -0.760000000     2.822000000
O    -0.685000000     0.092000000     4.679000000
C    -0.776000000     1.333000000     4.205000000
C     0.375000000     2.048000000     4.072000000
H     1.305000000     1.619000000     4.435000000
C     0.286000000     3.272000000     3.437000000
O     1.569000000     3.741000000     3.110000000
C    -0.952000000     3.839000000     3.015000000
C    -0.962000000     5.137000000     2.166000000
H    -1.898000000     5.688000000     2.281000000
C    -0.833000000     4.750000000     0.735000000
C    -1.991000000     4.633000000    -0.041000000
H    -2.932000000     4.821000000     0.469000000
H    -0.149000000     5.819000000     2.423000000
C    -2.127000000     3.098000000     3.309000000
H    -3.109000000     3.527000000     3.125000000
C    -2.024000000     1.818000000     3.918000000
C    -3.332000000     1.079000000     4.211000000
H    -4.171000000     1.768000000     4.333000000
H    -3.277000000     0.598000000     5.190000000
C    -3.511000000     0.104000000     3.071000000
C    -4.328000000     0.504000000     1.993000000
H    -4.666000000     1.537000000     1.955000000
C    -3.021000000    -1.218000000     3.067000000
C    -3.258000000    -2.046000000     2.052000000
H    -2.749000000    -2.995000000     1.908000000
C    -4.172000000    -1.666000000     1.032000000
O    -4.228000000    -2.575000000     0.019000000
C    -3.394000000    -2.206000000    -1.165000000
C    -2.649000000    -3.386000000    -1.758000000
C    -2.434000000    -3.465000000    -3.129000000
H    -2.810000000    -2.715000000    -3.820000000
C    -2.041000000    -4.301000000    -0.913000000
H    -2.272000000    -4.259000000     0.149000000
O    -4.262000000    -1.565000000    -2.188000000
H    -2.640000000    -1.469000000    -0.850000000
C    -4.713000000    -0.374000000     1.012000000
C    -5.550000000     0.077000000    -0.113000000
H    -6.213000000     0.805000000     0.358000000
H    -6.119000000    -0.800000000    -0.431000000
C    -4.697000000     0.641000000    -1.213000000
C    -4.521000000     2.048000000    -1.239000000
H    -4.926000000     2.610000000    -0.401000000
C    -4.188000000    -0.174000000    -2.223000000
C    -3.445000000     0.390000000    -3.180000000
H    -2.945000000    -0.242000000    -3.910000000
C    -3.021000000     1.684000000    -3.084000000
O    -2.152000000     2.047000000    -3.980000000
C    -0.808000000     2.219000000    -3.440000000
C     0.135000000     1.558000000    -4.336000000
C    -0.149000000     0.770000000    -5.454000000
H    -1.186000000     0.610000000    -5.737000000
C     1.481000000     1.471000000    -3.937000000
H     1.717000000     1.844000000    -2.943000000
O    -0.498000000     3.668000000    -3.214000000
H    -0.740000000     1.543000000    -2.574000000
C    -3.632000000     2.585000000    -2.180000000
C    -3.224000000     4.058000000    -2.239000000
H    -4.009000000     4.697000000    -1.830000000
H    -3.156000000     4.362000000    -3.286000000
C    -1.945000000     4.376000000    -1.439000000
C    -0.696000000     4.131000000    -1.991000000
C     0.489000000     4.263000000    -1.191000000
H     1.464000000     4.157000000    -1.658000000
C     0.390000000     4.492000000     0.190000000
O     1.549000000     4.717000000     0.920000000
C     1.935000000     3.566000000     1.740000000
H     1.400000000     2.672000000     1.388000000
C     3.406000000     3.168000000     1.712000000
C     3.963000000     2.193000000     2.591000000
H     3.453000000     1.886000000     3.500000000
C     4.098000000     3.514000000     0.537000000
H     3.579000000     4.076000000    -0.236000000
C     5.320000000     2.944000000     0.230000000
O     6.038000000     3.377000000    -0.922000000
C     5.849000000     1.962000000     1.167000000
H     6.818000000     1.578000000     0.857000000
C     5.215000000     1.658000000     2.357000000
O     5.775000000     0.661000000     3.132000000
C     5.382000000     0.412000000     4.377000000
C     4.640000000    -0.739000000     4.548000000
H     4.316000000    -1.339000000     3.702000000
C     5.645000000     1.262000000     5.431000000
H     6.207000000     2.189000000     5.355000000
C     5.254000000     0.872000000     6.720000000
H     5.305000000     1.603000000     7.523000000
C     4.657000000    -0.382000000     6.939000000
H     4.460000000    -0.669000000     7.969000000
C     4.269000000    -1.153000000     5.858000000
O     3.504000000    -2.283000000     6.087000000
C     2.391000000    -2.593000000     5.349000000
C     2.193000000    -3.945000000     4.949000000
H     2.950000000    -4.674000000     5.226000000
C     1.150000000    -4.292000000     4.156000000
O     0.944000000    -5.595000000     3.795000000
C    -0.064000000    -6.115000000     2.991000000
C     0.075000000    -5.984000000     1.625000000
H     0.952000000    -5.467000000     1.243000000
C    -1.174000000    -6.768000000     3.550000000
H    -1.312000000    -6.855000000     4.625000000
C    -2.225000000    -7.020000000     2.733000000
H    -3.156000000    -7.423000000     3.123000000
C    -2.102000000    -6.799000000     1.377000000
H    -2.957000000    -6.849000000     0.708000000
C    -0.961000000    -6.375000000     0.748000000
O    -0.839000000    -6.435000000    -0.613000000
C    -1.283000000    -5.397000000    -1.422000000
C    -1.066000000    -5.370000000    -2.789000000
H    -0.521000000    -6.214000000    -3.202000000
C    -1.640000000    -4.487000000    -3.659000000
O    -1.255000000    -4.672000000    -4.998000000
C    -1.316000000    -3.703000000    -5.930000000
C    -0.322000000    -2.772000000    -6.046000000
H     0.582000000    -2.734000000    -5.443000000
C    -2.397000000    -3.724000000    -6.878000000
H    -3.100000000    -4.544000000    -6.752000000
C    -2.544000000    -2.711000000    -7.829000000
H    -3.382000000    -2.692000000    -8.521000000
C    -1.524000000    -1.757000000    -7.897000000
H    -1.468000000    -0.955000000    -8.627000000
C    -0.390000000    -1.812000000    -7.083000000
O     0.382000000    -0.725000000    -7.234000000
C     0.791000000     0.007000000    -6.141000000
C     2.152000000     0.108000000    -5.753000000
H     2.908000000    -0.505000000    -6.237000000
C     2.510000000     0.805000000    -4.658000000
O     3.833000000     0.975000000    -4.254000000
C     4.298000000     2.202000000    -3.845000000
C     4.020000000     3.404000000    -4.482000000
H     3.576000000     3.424000000    -5.474000000
C     4.364000000     4.634000000    -3.934000000
H     4.142000000     5.594000000    -4.393000000
C     5.052000000     4.623000000    -2.747000000
H     5.376000000     5.556000000    -2.292000000
C     5.350000000     3.402000000    -2.117000000
C     4.965000000     2.194000000    -2.677000000
H     5.314000000     1.238000000    -2.294000000
C     0.906000000    -1.747000000    -0.948000000
H     0.872000000    -2.341000000    -1.857000000
C     0.103000000    -0.633000000    -0.738000000
H    -0.665000000    -0.334000000    -1.447000000
C     0.301000000     0.146000000     0.390000000
H    -0.328000000     0.950000000     0.567000000
C     1.302000000    -0.239000000     1.292000000
H     1.462000000     0.380000000     2.170000000
C     2.006000000    -1.416000000     1.160000000
H     2.754000000    -1.666000000     1.909000000
C     1.815000000    -2.225000000     0.065000000
C     2.644000000    -3.459000000    -0.171000000
O     3.674000000    -3.576000000     0.470000000
O     2.559000000    -4.014000000    -1.241000000
O     6.283000000    -8.202000000     3.046000000
H     6.151000000    -7.915000000     2.142000000
H     5.923000000    -7.492000000     3.578000000
O     6.593000000    -6.455000000    -3.113000000
H     6.348000000    -5.872000000    -2.394000000
H     6.300000000    -6.000000000    -3.902000000
O     4.126000000    -3.195000000    -6.034000000
H     4.011000000    -3.381000000    -6.966000000
H     3.293000000    -3.444000000    -5.635000000
O     5.701000000    -8.854000000    -1.782000000
H     5.805000000    -8.262000000    -2.527000000
H     5.399000000    -9.675000000    -2.170000000
O     5.263000000    -6.359000000     4.836000000
H     5.938000000    -5.812000000     5.239000000
H     4.964000000    -5.853000000     4.080000000
O     3.126000000     0.609000000    -0.865000000
H     3.183000000     0.063000000    -1.650000000
H     2.383000000     0.252000000    -0.379000000
O     5.364000000    -7.509000000     0.530000000
H     5.367000000    -6.648000000     0.110000000
H     5.643000000    -8.112000000    -0.158000000
O     5.543000000    -0.864000000    -0.248000000
H     5.106000000    -1.710000000    -0.344000000
H     4.834000000    -0.245000000    -0.077000000
O     1.366000000    -9.198000000     1.895000000
H     1.788000000    -9.980000000     2.253000000
H     2.086000000    -8.585000000     1.748000000
O     3.265000000    -6.916000000     1.830000000
H     4.003000000    -7.214000000     1.299000000
H     3.509000000    -6.033000000     2.105000000
O     5.711000000    -4.917000000    -0.933000000
H     4.878000000    -4.499000000    -0.717000000
H     6.300000000    -4.656000000    -0.225000000
O     3.687000000    -1.738000000    -2.566000000
H     3.622000000    -2.662000000    -2.323000000
H     3.273000000    -1.688000000    -3.428000000
O     7.514000000    -1.757000000     1.849000000
H     7.568000000    -1.837000000     2.801000000
H     6.770000000    -1.174000000     1.700000000
O     8.357000000    -4.364000000     0.975000000
H     8.625000000    -4.647000000     1.850000000
H     7.910000000    -3.530000000     1.121000000
O     4.995000000    -4.314000000     2.809000000
H     4.586000000    -3.870000000     2.067000000
H     5.711000000    -3.736000000     3.070000000
O     1.778000000    -6.418000000    -2.478000000
H     1.239000000    -6.634000000    -1.717000000
H     2.499000000    -5.899000000    -2.122000000
O     2.128000000    -3.882000000    -4.058000000
H     1.353000000    -4.314000000    -4.419000000
H     2.255000000    -4.294000000    -3.203000000
O     6.124000000    -2.092000000    -3.930000000
H     5.469000000    -1.936000000    -3.250000000
H     5.612000000    -2.263000000    -4.721000000
O     8.213000000    -0.005000000    -0.651000000
H     7.428000000    -0.524000000    -0.476000000
H     8.147000000     0.223000000    -1.579000000
