215
-1454.35265
C    -0.038000000    -3.471000000     3.501000000
H    -0.701000000    -3.759000000     2.689000000
C    -0.233000000    -2.312000000     4.216000000
C     0.650000000    -1.927000000     5.199000000
H     0.688000000    -0.941000000     5.656000000
C    -1.371000000    -1.343000000     3.837000000
O    -2.576000000    -2.046000000     3.534000000
H    -1.103000000    -0.886000000     2.873000000
O    -1.539000000    -0.285000000     4.835000000
C    -1.657000000     1.004000000     4.350000000
C    -0.492000000     1.668000000     4.286000000
H     0.444000000     1.457000000     4.797000000
C    -0.512000000     2.894000000     3.638000000
O     0.770000000     3.424000000     3.442000000
C    -1.678000000     3.416000000     3.038000000
C    -1.695000000     4.692000000     2.299000000
H    -2.672000000     5.165000000     2.411000000
C    -1.313000000     4.656000000     0.847000000
C    -2.312000000     4.635000000    -0.105000000
H    -3.351000000     4.715000000     0.204000000
H    -1.044000000     5.396000000     2.821000000
C    -2.819000000     2.667000000     3.161000000
H    -3.771000000     3.021000000     2.774000000
C    -2.845000000     1.439000000     3.801000000
C    -4.071000000     0.540000000     3.756000000
H    -4.978000000     1.147000000     3.789000000
H    -4.113000000    -0.078000000     4.655000000
C    -4.035000000    -0.349000000     2.491000000
C    -4.772000000     0.079000000     1.363000000
H    -5.280000000     1.040000000     1.405000000
C    -3.327000000    -1.572000000     2.482000000
C    -3.315000000    -2.347000000     1.320000000
H    -2.671000000    -3.223000000     1.308000000
C    -4.040000000    -1.877000000     0.168000000
O    -4.041000000    -2.724000000    -0.965000000
C    -2.968000000    -2.324000000    -1.792000000
C    -2.147000000    -3.520000000    -2.292000000
C    -1.655000000    -3.454000000    -3.603000000
H    -1.813000000    -2.595000000    -4.250000000
C    -1.868000000    -4.611000000    -1.399000000
H    -2.232000000    -4.756000000    -0.385000000
O    -3.636000000    -1.689000000    -2.939000000
H    -2.249000000    -1.582000000    -1.415000000
C    -4.795000000    -0.700000000     0.253000000
C    -5.472000000    -0.187000000    -0.961000000
H    -6.325000000     0.446000000    -0.708000000
H    -5.993000000    -0.944000000    -1.551000000
C    -4.529000000     0.489000000    -2.012000000
C    -4.406000000     1.906000000    -2.048000000
H    -4.880000000     2.487000000    -1.260000000
C    -3.748000000    -0.244000000    -2.916000000
C    -2.960000000     0.365000000    -3.784000000
H    -2.451000000    -0.257000000    -4.516000000
C    -2.710000000     1.726000000    -3.748000000
O    -1.581000000     2.272000000    -4.311000000
C    -0.411000000     2.425000000    -3.523000000
C     0.853000000     1.920000000    -4.186000000
C     0.927000000     0.680000000    -4.833000000
H     0.014000000     0.091000000    -4.877000000
C     1.936000000     2.769000000    -4.200000000
H     1.854000000     3.782000000    -3.812000000
O    -0.374000000     3.807000000    -3.211000000
H    -0.455000000     1.872000000    -2.573000000
C    -3.421000000     2.507000000    -2.799000000
C    -3.170000000     3.978000000    -2.454000000
H    -4.097000000     4.488000000    -2.185000000
H    -2.834000000     4.559000000    -3.315000000
C    -2.047000000     4.395000000    -1.458000000
C    -0.725000000     4.231000000    -1.901000000
C     0.256000000     4.154000000    -0.921000000
H     1.257000000     4.022000000    -1.325000000
C     0.037000000     4.439000000     0.396000000
O     1.076000000     4.388000000     1.280000000
C     1.254000000     3.206000000     2.048000000
H     0.678000000     2.404000000     1.562000000
C     2.709000000     2.766000000     2.041000000
C     3.247000000     2.050000000     3.078000000
H     2.711000000     1.778000000     3.984000000
C     3.566000000     3.087000000     1.011000000
H     3.186000000     3.573000000     0.116000000
C     4.883000000     2.662000000     0.969000000
O     5.647000000     2.772000000    -0.180000000
C     5.406000000     1.958000000     2.030000000
H     6.413000000     1.557000000     1.945000000
C     4.574000000     1.643000000     3.067000000
O     5.100000000     0.998000000     4.107000000
C     4.387000000     0.574000000     5.208000000
C     3.963000000    -0.754000000     5.319000000
H     4.122000000    -1.493000000     4.538000000
C     4.150000000     1.476000000     6.214000000
H     4.498000000     2.505000000     6.172000000
C     3.552000000     1.036000000     7.424000000
H     3.393000000     1.669000000     8.293000000
C     3.056000000    -0.288000000     7.492000000
H     2.474000000    -0.657000000     8.333000000
C     3.227000000    -1.142000000     6.403000000
O     2.614000000    -2.415000000     6.440000000
C     1.702000000    -2.769000000     5.538000000
C     1.937000000    -3.918000000     4.723000000
H     2.752000000    -4.587000000     4.988000000
C     1.017000000    -4.330000000     3.756000000
O     1.192000000    -5.403000000     2.890000000
C     0.195000000    -6.106000000     2.289000000
C     0.184000000    -6.131000000     0.924000000
H     1.024000000    -5.692000000     0.392000000
C    -0.842000000    -6.679000000     3.092000000
H    -0.905000000    -6.554000000     4.170000000
C    -1.820000000    -7.291000000     2.406000000
H    -2.646000000    -7.761000000     2.933000000
C    -1.797000000    -7.448000000     1.057000000
H    -2.601000000    -7.923000000     0.500000000
C    -0.805000000    -6.861000000     0.280000000
O    -0.887000000    -6.797000000    -1.079000000
C    -1.150000000    -5.702000000    -1.899000000
C    -0.784000000    -5.674000000    -3.289000000
H    -0.322000000    -6.584000000    -3.662000000
C    -1.000000000    -4.566000000    -4.078000000
O    -0.650000000    -4.694000000    -5.423000000
C    -0.296000000    -3.582000000    -6.116000000
C     0.835000000    -2.822000000    -5.759000000
H     1.341000000    -3.186000000    -4.868000000
C    -0.906000000    -3.346000000    -7.310000000
H    -1.767000000    -3.868000000    -7.721000000
C    -0.557000000    -2.180000000    -8.054000000
H    -1.173000000    -1.816000000    -8.872000000
C     0.403000000    -1.310000000    -7.558000000
H     0.689000000    -0.495000000    -8.217000000
C     1.225000000    -1.676000000    -6.453000000
O     2.217000000    -0.972000000    -5.896000000
C     2.111000000     0.227000000    -5.331000000
C     3.281000000     1.012000000    -5.285000000
H     4.242000000     0.691000000    -5.678000000
C     3.186000000     2.328000000    -4.744000000
O     4.302000000     3.146000000    -4.695000000
C     4.634000000     3.703000000    -3.535000000
C     4.844000000     5.057000000    -3.482000000
H     4.628000000     5.572000000    -4.415000000
C     5.360000000     5.641000000    -2.357000000
H     5.481000000     6.722000000    -2.359000000
C     5.745000000     4.846000000    -1.274000000
H     6.167000000     5.370000000    -0.420000000
C     5.354000000     3.470000000    -1.272000000
C     4.832000000     2.894000000    -2.417000000
H     4.709000000     1.814000000    -2.432000000
C     1.162000000    -1.963000000    -1.284000000
H     1.323000000    -2.287000000    -2.309000000
C     0.400000000    -0.824000000    -0.968000000
H    -0.129000000    -0.260000000    -1.732000000
C     0.279000000    -0.348000000     0.323000000
H    -0.220000000     0.527000000     0.593000000
C     0.928000000    -1.035000000     1.341000000
H     0.930000000    -0.701000000     2.376000000
C     1.694000000    -2.151000000     1.018000000
H     2.190000000    -2.669000000     1.835000000
C     1.791000000    -2.705000000    -0.280000000
C     2.653000000    -3.884000000    -0.528000000
O     3.646000000    -4.094000000     0.126000000
O     2.367000000    -4.657000000    -1.417000000
O     1.272000000    -9.576000000    -1.584000000
H     1.683000000    -8.711000000    -1.578000000
H     0.865000000    -9.653000000    -0.721000000
O     5.327000000    -1.812000000    -2.688000000
H     5.790000000    -1.343000000    -3.383000000
H     5.031000000    -1.124000000    -2.092000000
O     5.702000000    -9.251000000    -0.874000000
H     5.850000000    -8.323000000    -1.054000000
H     5.445000000    -9.621000000    -1.719000000
O     4.400000000    -4.709000000    -6.394000000
H     3.544000000    -4.822000000    -6.807000000
H     4.207000000    -4.637000000    -5.459000000
O     4.455000000    -8.896000000     1.563000000
H     4.832000000    -8.753000000     0.695000000
H     3.906000000    -8.127000000     1.715000000
O     3.913000000    -0.268000000    -1.085000000
H     3.051000000     0.075000000    -1.319000000
H     3.829000000    -0.521000000    -0.165000000
O     3.668000000   -10.412000000    -2.641000000
H     3.801000000    -9.564000000    -3.063000000
H     2.774000000   -10.374000000    -2.302000000
O     4.571000000    -1.980000000    -6.600000000
H     3.843000000    -1.468000000    -6.247000000
H     4.252000000    -2.882000000    -6.597000000
O     4.608000000    -2.001000000     1.461000000
H     3.966000000    -2.634000000     1.141000000
H     4.918000000    -2.372000000     2.288000000
O     2.423000000    -7.238000000    -4.456000000
H     2.800000000    -6.358000000    -4.469000000
H     2.329000000    -7.444000000    -3.526000000
O     5.827000000    -4.107000000    -1.227000000
H     5.768000000    -3.212000000    -1.560000000
H     5.036000000    -4.220000000    -0.700000000
O     6.420000000    -6.974000000    -2.025000000
H     6.131000000    -6.081000000    -1.837000000
H     6.321000000    -7.064000000    -2.973000000
O     8.179000000    -3.606000000    -2.617000000
H     7.439000000    -3.948000000    -2.114000000
H     7.863000000    -3.583000000    -3.520000000
O     8.602000000    -0.578000000    -2.252000000
H     8.157000000    -0.936000000    -1.484000000
H     9.075000000    -1.322000000    -2.624000000
O     3.213000000    -6.286000000     1.504000000
H     3.364000000    -5.453000000     1.056000000
H     2.488000000    -6.108000000     2.103000000
O     2.605000000    -7.292000000    -1.478000000
H     2.352000000    -6.373000000    -1.560000000
H     3.143000000    -7.322000000    -0.687000000
O     3.608000000    -4.082000000    -3.676000000
H     2.992000000    -4.228000000    -2.958000000
H     4.288000000    -3.524000000    -3.297000000
O     6.109000000    -3.433000000     3.810000000
H     6.361000000    -2.769000000     4.451000000
H     6.519000000    -4.238000000     4.126000000
O     7.152000000    -1.538000000     0.110000000
H     6.320000000    -1.993000000     0.239000000
H     7.818000000    -2.202000000     0.288000000
