215
-1470.37338
C    -0.320000000    -3.949000000     3.785000000
H    -1.295000000    -4.301000000     3.457000000
C    -0.108000000    -2.593000000     4.065000000
C     1.154000000    -2.217000000     4.556000000
H     1.346000000    -1.162000000     4.736000000
C    -1.189000000    -1.529000000     3.674000000
O    -2.555000000    -2.094000000     3.792000000
H    -1.103000000    -1.189000000     2.631000000
O    -1.038000000    -0.489000000     4.675000000
C    -1.172000000     0.822000000     4.276000000
C    -0.007000000     1.522000000     3.991000000
H     0.952000000     1.031000000     4.133000000
C    -0.053000000     2.811000000     3.537000000
O     1.152000000     3.464000000     3.304000000
C    -1.346000000     3.442000000     3.321000000
C    -1.489000000     4.753000000     2.543000000
H    -2.506000000     5.148000000     2.579000000
C    -1.230000000     4.678000000     1.050000000
C    -2.322000000     4.422000000     0.170000000
H    -3.324000000     4.291000000     0.570000000
H    -0.775000000     5.486000000     2.925000000
C    -2.511000000     2.693000000     3.550000000
H    -3.458000000     3.188000000     3.346000000
C    -2.445000000     1.357000000     3.966000000
C    -3.753000000     0.552000000     4.169000000
H    -4.585000000     1.239000000     4.338000000
H    -3.641000000     0.024000000     5.118000000
C    -4.114000000    -0.379000000     3.002000000
C    -4.918000000    -0.009000000     1.934000000
H    -5.555000000     0.861000000     2.071000000
C    -3.503000000    -1.655000000     2.938000000
C    -3.633000000    -2.488000000     1.877000000
H    -3.055000000    -3.406000000     1.804000000
C    -4.360000000    -2.080000000     0.809000000
O    -4.316000000    -2.856000000    -0.349000000
C    -3.298000000    -2.436000000    -1.295000000
C    -2.510000000    -3.573000000    -1.973000000
C    -2.302000000    -3.555000000    -3.386000000
H    -2.643000000    -2.718000000    -3.990000000
C    -1.915000000    -4.624000000    -1.228000000
H    -2.215000000    -4.788000000    -0.196000000
O    -3.930000000    -1.627000000    -2.284000000
H    -2.574000000    -1.890000000    -0.673000000
C    -4.932000000    -0.769000000     0.795000000
C    -5.586000000    -0.180000000    -0.426000000
H    -6.369000000     0.481000000    -0.049000000
H    -6.170000000    -0.957000000    -0.923000000
C    -4.523000000     0.416000000    -1.321000000
C    -4.290000000     1.804000000    -1.269000000
H    -4.897000000     2.347000000    -0.549000000
C    -3.773000000    -0.292000000    -2.252000000
C    -2.871000000     0.304000000    -3.091000000
H    -2.380000000    -0.351000000    -3.807000000
C    -2.662000000     1.642000000    -3.003000000
O    -1.748000000     2.249000000    -3.887000000
C    -0.522000000     2.577000000    -3.181000000
C     0.645000000     2.071000000    -3.862000000
C     0.674000000     0.755000000    -4.391000000
H    -0.191000000     0.097000000    -4.419000000
C     1.828000000     2.819000000    -3.978000000
H     1.922000000     3.831000000    -3.591000000
O    -0.431000000     4.011000000    -2.989000000
H    -0.498000000     2.038000000    -2.222000000
C    -3.317000000     2.428000000    -2.111000000
C    -3.150000000     3.977000000    -2.095000000
H    -4.107000000     4.489000000    -1.970000000
H    -2.964000000     4.275000000    -3.129000000
C    -2.056000000     4.342000000    -1.202000000
C    -0.733000000     4.384000000    -1.753000000
C     0.328000000     4.539000000    -0.838000000
H     1.365000000     4.476000000    -1.158000000
C     0.018000000     4.709000000     0.504000000
O     1.078000000     4.694000000     1.377000000
C     1.579000000     3.513000000     1.935000000
H     1.126000000     2.676000000     1.383000000
C     3.029000000     3.274000000     1.782000000
C     3.681000000     2.222000000     2.391000000
H     3.062000000     1.545000000     2.976000000
C     3.778000000     4.023000000     0.867000000
H     3.409000000     4.861000000     0.282000000
C     5.138000000     3.686000000     0.599000000
O     5.872000000     4.404000000    -0.303000000
C     5.718000000     2.640000000     1.316000000
H     6.764000000     2.397000000     1.149000000
C     5.009000000     1.922000000     2.208000000
O     5.584000000     0.813000000     2.845000000
C     5.082000000     0.281000000     4.001000000
C     4.475000000    -0.968000000     3.929000000
H     4.707000000    -1.500000000     3.010000000
C     5.059000000     1.007000000     5.216000000
H     5.435000000     2.009000000     5.408000000
C     4.495000000     0.477000000     6.376000000
H     4.569000000     0.960000000     7.347000000
C     3.835000000    -0.779000000     6.255000000
H     3.389000000    -1.271000000     7.115000000
C     3.956000000    -1.540000000     5.083000000
O     3.524000000    -2.849000000     5.023000000
C     2.213000000    -3.157000000     4.742000000
C     1.853000000    -4.479000000     4.446000000
H     2.524000000    -5.309000000     4.651000000
C     0.690000000    -4.886000000     3.904000000
O     0.538000000    -6.218000000     3.626000000
C    -0.215000000    -6.629000000     2.543000000
C    -0.060000000    -6.178000000     1.253000000
H     0.701000000    -5.424000000     1.073000000
C    -1.200000000    -7.589000000     2.796000000
H    -1.244000000    -8.109000000     3.749000000
C    -2.027000000    -8.074000000     1.806000000
H    -2.740000000    -8.836000000     2.111000000
C    -1.910000000    -7.618000000     0.479000000
H    -2.480000000    -8.033000000    -0.347000000
C    -0.864000000    -6.747000000     0.252000000
O    -0.605000000    -6.558000000    -1.094000000
C    -1.098000000    -5.586000000    -1.858000000
C    -0.916000000    -5.519000000    -3.208000000
H    -0.249000000    -6.256000000    -3.649000000
C    -1.462000000    -4.561000000    -3.927000000
O    -1.370000000    -4.545000000    -5.297000000
C    -0.777000000    -3.474000000    -5.992000000
C     0.327000000    -2.916000000    -5.402000000
H     0.669000000    -3.296000000    -4.442000000
C    -1.357000000    -3.060000000    -7.188000000
H    -2.177000000    -3.600000000    -7.654000000
C    -0.852000000    -1.855000000    -7.763000000
H    -1.316000000    -1.450000000    -8.659000000
C     0.164000000    -1.192000000    -7.122000000
H     0.632000000    -0.309000000    -7.549000000
C     0.780000000    -1.731000000    -6.007000000
O     1.913000000    -1.084000000    -5.598000000
C     1.836000000     0.250000000    -5.067000000
C     2.970000000     1.055000000    -5.206000000
H     3.831000000     0.610000000    -5.699000000
C     3.016000000     2.303000000    -4.582000000
O     4.244000000     2.959000000    -4.591000000
C     4.574000000     3.967000000    -3.721000000
C     4.204000000     5.282000000    -4.039000000
H     3.696000000     5.557000000    -4.960000000
C     4.437000000     6.273000000    -3.061000000
H     4.058000000     7.272000000    -3.258000000
C     4.855000000     5.971000000    -1.780000000
H     4.849000000     6.752000000    -1.024000000
C     5.240000000     4.650000000    -1.499000000
C     5.116000000     3.641000000    -2.491000000
H     5.423000000     2.607000000    -2.353000000
C     1.400000000    -2.158000000    -1.458000000
H     1.401000000    -2.946000000    -2.207000000
C     0.478000000    -1.095000000    -1.529000000
H    -0.156000000    -1.023000000    -2.410000000
C     0.354000000    -0.183000000    -0.492000000
H    -0.486000000     0.521000000    -0.502000000
C     1.000000000    -0.503000000     0.721000000
H     0.809000000     0.019000000     1.655000000
C     1.984000000    -1.512000000     0.737000000
H     2.321000000    -1.751000000     1.742000000
C     2.257000000    -2.296000000    -0.346000000
C     3.229000000    -3.463000000    -0.218000000
O     4.215000000    -3.318000000     0.462000000
O     3.016000000    -4.596000000    -0.645000000
O     6.660000000    -7.026000000    -3.240000000
H     5.837000000    -7.317000000    -2.846000000
H     6.424000000    -6.783000000    -4.135000000
O     4.164000000    -3.852000000    -4.664000000
H     3.713000000    -3.898000000    -5.507000000
H     3.710000000    -4.491000000    -4.115000000
O     6.550000000    -3.935000000    -3.400000000
H     7.154000000    -3.474000000    -3.982000000
H     5.806000000    -4.161000000    -3.957000000
O     4.323000000    -8.327000000    -2.311000000
H     3.720000000    -8.189000000    -1.580000000
H     4.596000000    -9.241000000    -2.227000000
O     5.797000000    -5.195000000     4.957000000
H     5.172000000    -5.347000000     5.667000000
H     5.254000000    -5.126000000     4.171000000
O     2.601000000    -6.040000000    -5.696000000
H     2.318000000    -6.937000000    -5.872000000
H     2.628000000    -5.981000000    -4.741000000
O     4.136000000     0.406000000    -1.512000000
H     4.140000000     0.446000000    -2.468000000
H     3.210000000     0.445000000    -1.274000000
O     6.403000000    -7.770000000     0.655000000
H     7.295000000    -8.089000000     0.793000000
H     6.511000000    -6.845000000     0.434000000
O     5.995000000    -1.161000000    -0.171000000
H     5.587000000    -1.904000000     0.274000000
H     5.259000000    -0.641000000    -0.493000000
O     8.955000000    -6.439000000    -1.580000000
H     8.743000000    -6.085000000    -0.716000000
H     8.114000000    -6.481000000    -2.035000000
O     3.116000000    -7.748000000     1.983000000
H     3.443000000    -6.852000000     1.907000000
H     3.726000000    -8.176000000     2.584000000
O     6.352000000    -4.890000000    -0.893000000
H     6.131000000    -4.519000000    -1.747000000
H     5.653000000    -4.588000000    -0.312000000
O     4.857000000    -1.311000000    -3.790000000
H     4.497000000    -2.157000000    -4.057000000
H     5.291000000    -1.488000000    -2.955000000
O     8.645000000    -1.785000000     3.338000000
H     8.429000000    -2.431000000     4.011000000
H     8.032000000    -1.968000000     2.626000000
O     8.305000000    -2.290000000    -1.590000000
H     8.027000000    -2.999000000    -2.170000000
H     7.509000000    -2.039000000    -1.120000000
O     4.845000000    -5.365000000     2.270000000
H     4.407000000    -4.673000000     1.774000000
H     5.727000000    -5.402000000     1.900000000
O     2.285000000    -7.386000000    -0.727000000
H     2.527000000    -7.672000000     0.154000000
H     2.206000000    -6.435000000    -0.657000000
O     3.205000000    -5.714000000    -2.984000000
H     3.171000000    -6.619000000    -2.674000000
H     3.215000000    -5.187000000    -2.184000000
O     8.446000000     0.170000000     0.188000000
H     7.688000000    -0.413000000     0.163000000
H     9.155000000    -0.341000000    -0.202000000
