215
-1446.20242
C     3.973000000    -1.922000000    -2.216000000
H     3.174000000    -2.647000000    -2.346000000
C     4.124000000    -1.445000000    -0.873000000
C     4.913000000    -0.335000000    -0.627000000
H     5.012000000     0.044000000     0.387000000
C     3.386000000    -2.105000000     0.303000000
O     3.113000000    -3.529000000     0.155000000
H     2.439000000    -1.553000000     0.394000000
O     4.004000000    -1.782000000     1.569000000
C     3.160000000    -1.369000000     2.637000000
C     3.180000000    -0.069000000     3.033000000
H     3.943000000     0.549000000     2.567000000
C     2.240000000     0.403000000     3.957000000
O     2.229000000     1.732000000     4.272000000
C     1.307000000    -0.477000000     4.502000000
C     0.271000000    -0.156000000     5.529000000
H     0.177000000    -0.983000000     6.236000000
C    -0.976000000     0.270000000     4.789000000
C    -2.093000000    -0.533000000     4.484000000
H    -2.038000000    -1.581000000     4.768000000
H     0.625000000     0.611000000     6.221000000
C     1.385000000    -1.817000000     4.140000000
H     0.708000000    -2.517000000     4.623000000
C     2.331000000    -2.331000000     3.281000000
C     2.338000000    -3.783000000     2.868000000
H     2.097000000    -4.398000000     3.737000000
H     3.331000000    -4.114000000     2.556000000
C     1.408000000    -4.116000000     1.740000000
C     0.092000000    -4.568000000     2.024000000
H    -0.226000000    -4.611000000     3.063000000
C     1.846000000    -4.012000000     0.433000000
C     0.970000000    -4.290000000    -0.648000000
H     1.239000000    -4.261000000    -1.701000000
C    -0.320000000    -4.659000000    -0.289000000
O    -1.167000000    -4.963000000    -1.311000000
C    -1.766000000    -3.715000000    -1.790000000
C    -1.639000000    -3.510000000    -3.337000000
C    -2.514000000    -2.751000000    -4.131000000
H    -3.380000000    -2.288000000    -3.665000000
C    -0.542000000    -4.148000000    -3.936000000
H     0.167000000    -4.812000000    -3.450000000
O    -3.113000000    -3.772000000    -1.351000000
H    -1.321000000    -2.856000000    -1.267000000
C    -0.790000000    -4.705000000     0.977000000
C    -2.297000000    -4.966000000     1.258000000
H    -2.348000000    -5.430000000     2.246000000
H    -2.700000000    -5.661000000     0.519000000
C    -3.096000000    -3.661000000     1.100000000
C    -3.546000000    -2.998000000     2.260000000
H    -3.387000000    -3.425000000     3.247000000
C    -3.426000000    -3.100000000    -0.133000000
C    -4.110000000    -1.888000000    -0.273000000
H    -4.377000000    -1.531000000    -1.264000000
C    -4.340000000    -1.135000000     0.866000000
O    -4.653000000     0.174000000     0.654000000
C    -3.769000000     1.218000000     0.974000000
C    -3.923000000     2.247000000    -0.137000000
C    -4.153000000     1.824000000    -1.444000000
H    -4.175000000     0.777000000    -1.734000000
C    -3.829000000     3.576000000     0.147000000
H    -3.560000000     3.898000000     1.150000000
O    -3.919000000     1.710000000     2.307000000
H    -2.725000000     0.903000000     0.827000000
C    -4.106000000    -1.702000000     2.118000000
C    -4.327000000    -0.937000000     3.456000000
H    -4.568000000    -1.600000000     4.290000000
H    -5.268000000    -0.392000000     3.359000000
C    -3.151000000    -0.047000000     3.741000000
C    -3.062000000     1.268000000     3.255000000
C    -2.004000000     2.094000000     3.598000000
H    -1.971000000     3.114000000     3.224000000
C    -1.011000000     1.595000000     4.374000000
O     0.081000000     2.482000000     4.513000000
C     1.159000000     2.407000000     3.594000000
H     0.640000000     1.851000000     2.799000000
C     1.596000000     3.734000000     3.008000000
C     2.827000000     3.810000000     2.501000000
H     3.442000000     2.915000000     2.547000000
C     0.698000000     4.780000000     2.909000000
H    -0.313000000     4.671000000     3.293000000
C     1.147000000     5.979000000     2.333000000
O     0.275000000     7.054000000     2.039000000
C     2.458000000     6.036000000     1.791000000
H     2.709000000     6.984000000     1.321000000
C     3.371000000     4.979000000     1.887000000
O     4.517000000     5.042000000     1.135000000
C     5.485000000     4.009000000     1.005000000
C     5.648000000     3.325000000    -0.200000000
H     5.259000000     3.756000000    -1.119000000
C     6.213000000     3.547000000     2.147000000
H     6.130000000     4.118000000     3.069000000
C     7.129000000     2.499000000     2.026000000
H     7.801000000     2.159000000     2.809000000
C     7.205000000     1.723000000     0.843000000
H     7.892000000     0.887000000     0.740000000
C     6.440000000     2.160000000    -0.251000000
O     6.404000000     1.406000000    -1.411000000
C     5.635000000     0.302000000    -1.667000000
C     5.581000000    -0.240000000    -2.971000000
H     6.157000000     0.247000000    -3.753000000
C     4.691000000    -1.355000000    -3.235000000
O     4.610000000    -1.894000000    -4.513000000
C     4.055000000    -3.119000000    -4.747000000
C     2.703000000    -3.251000000    -5.173000000
H     2.079000000    -2.374000000    -5.321000000
C     4.875000000    -4.275000000    -4.667000000
H     5.932000000    -4.170000000    -4.437000000
C     4.337000000    -5.554000000    -4.970000000
H     4.958000000    -6.433000000    -4.817000000
C     2.970000000    -5.608000000    -5.265000000
H     2.513000000    -6.594000000    -5.232000000
C     2.162000000    -4.478000000    -5.330000000
O     0.846000000    -4.609000000    -5.737000000
C    -0.242000000    -3.864000000    -5.276000000
C    -1.024000000    -3.020000000    -6.040000000
H    -0.700000000    -2.668000000    -7.016000000
C    -2.117000000    -2.372000000    -5.392000000
O    -2.885000000    -1.394000000    -6.080000000
C    -3.907000000    -0.716000000    -5.462000000
C    -3.756000000     0.592000000    -4.961000000
H    -2.721000000     0.921000000    -4.916000000
C    -5.152000000    -1.336000000    -5.258000000
H    -5.273000000    -2.365000000    -5.586000000
C    -6.231000000    -0.633000000    -4.736000000
H    -7.183000000    -1.130000000    -4.566000000
C    -6.018000000     0.645000000    -4.204000000
H    -6.761000000     1.220000000    -3.658000000
C    -4.766000000     1.258000000    -4.330000000
O    -4.485000000     2.532000000    -3.800000000
C    -4.256000000     2.845000000    -2.468000000
C    -4.098000000     4.174000000    -2.103000000
H    -4.236000000     4.976000000    -2.824000000
C    -3.928000000     4.565000000    -0.807000000
O    -3.782000000     5.876000000    -0.508000000
C    -3.086000000     6.342000000     0.612000000
C    -3.876000000     6.780000000     1.672000000
H    -4.929000000     6.518000000     1.607000000
C    -3.271000000     7.294000000     2.881000000
H    -3.849000000     7.580000000     3.756000000
C    -1.910000000     7.311000000     3.017000000
H    -1.569000000     7.576000000     4.014000000
C    -1.106000000     6.880000000     1.963000000
C    -1.697000000     6.438000000     0.765000000
H    -1.047000000     6.160000000    -0.060000000
C     1.070000000    -0.370000000    -3.606000000
H     0.753000000    -0.834000000    -4.537000000
C     0.449000000    -0.522000000    -2.395000000
H    -0.314000000    -1.293000000    -2.316000000
C     0.958000000     0.175000000    -1.267000000
H     0.436000000    -0.169000000    -0.367000000
C     1.923000000     1.112000000    -1.382000000
H     2.290000000     1.686000000    -0.535000000
C     2.618000000     1.241000000    -2.586000000
H     3.539000000     1.802000000    -2.719000000
C     2.185000000     0.495000000    -3.711000000
C     2.815000000     0.758000000    -5.061000000
O     3.698000000     1.545000000    -5.131000000
O     2.364000000     0.391000000    -6.104000000
O     1.495000000     5.799000000    -5.100000000
H     1.199000000     5.360000000    -4.302000000
H     2.024000000     5.142000000    -5.553000000
O     2.080000000     1.948000000   -10.179000000
H     2.155000000     2.709000000   -10.755000000
H     1.138000000     1.823000000   -10.068000000
O     5.483000000     1.141000000    -9.069000000
H     4.587000000     1.444000000    -8.926000000
H     5.780000000     1.626000000    -9.839000000
O     3.417000000    -1.106000000    -7.985000000
H     4.357000000    -0.999000000    -7.839000000
H     3.007000000    -0.592000000    -7.289000000
O     8.391000000    -0.868000000    -5.312000000
H     8.668000000    -0.792000000    -4.399000000
H     9.007000000    -1.490000000    -5.698000000
O     7.819000000    -1.125000000    -9.054000000
H     7.264000000    -0.689000000    -8.407000000
H     8.713000000    -0.938000000    -8.767000000
O     6.148000000    -1.230000000    -6.777000000
H     5.562000000    -1.575000000    -6.104000000
H     6.697000000    -0.597000000    -6.315000000
O     0.277000000     3.256000000    -3.080000000
H    -0.228000000     3.662000000    -2.375000000
H     0.797000000     2.581000000    -2.643000000
O     5.868000000     2.117000000    -6.505000000
H     5.138000000     1.803000000    -5.971000000
H     5.943000000     1.474000000    -7.210000000
O    -0.324000000     2.825000000    -5.944000000
H    -0.576000000     3.723000000    -6.160000000
H    -0.164000000     2.841000000    -5.000000000
O     7.762000000     2.097000000    -4.871000000
H     8.175000000     1.242000000    -4.989000000
H     7.226000000     2.214000000    -5.656000000
O    -1.779000000    -1.082000000    -9.066000000
H    -1.969000000    -0.506000000    -9.806000000
H    -1.489000000    -0.492000000    -8.370000000
O     5.376000000     3.632000000    -3.788000000
H     4.827000000     2.950000000    -4.176000000
H     6.267000000     3.288000000    -3.856000000
O     5.303000000     4.773000000    -6.989000000
H     4.364000000     4.633000000    -6.862000000
H     5.705000000     3.944000000    -6.731000000
O     4.108000000    -4.250000000    -7.983000000
H     4.822000000    -3.857000000    -8.485000000
H     3.787000000    -3.541000000    -7.427000000
O     0.662000000    -2.889000000    -9.536000000
H    -0.120000000    -2.467000000    -9.180000000
H     1.277000000    -2.171000000    -9.683000000
O     2.852000000     3.885000000    -6.279000000
H     3.183000000     3.078000000    -5.886000000
H     2.230000000     3.590000000    -6.944000000
O    -0.259000000     0.571000000    -7.484000000
H    -0.588000000     1.397000000    -7.131000000
H     0.615000000     0.479000000    -7.104000000
O     2.306000000    -0.705000000   -10.395000000
H     2.673000000    -0.632000000    -9.514000000
H     2.093000000     0.195000000   -10.641000000
