215
-1458.70081
C    -0.488000000    -4.387000000     3.753000000
H    -1.518000000    -4.726000000     3.678000000
C    -0.171000000    -3.060000000     3.947000000
C     1.123000000    -2.594000000     4.062000000
H     1.335000000    -1.528000000     4.027000000
C    -1.208000000    -1.998000000     3.710000000
O    -2.451000000    -2.585000000     3.551000000
H    -0.961000000    -1.399000000     2.821000000
O    -1.408000000    -1.064000000     4.812000000
C    -1.436000000     0.246000000     4.388000000
C    -0.308000000     0.987000000     4.341000000
H     0.638000000     0.590000000     4.700000000
C    -0.344000000     2.285000000     3.898000000
O     0.881000000     2.883000000     3.679000000
C    -1.501000000     2.914000000     3.519000000
C    -1.562000000     4.281000000     2.901000000
H    -2.595000000     4.633000000     2.953000000
C    -1.322000000     4.255000000     1.383000000
C    -2.361000000     4.138000000     0.422000000
H    -3.382000000     3.971000000     0.757000000
H    -0.900000000     4.993000000     3.399000000
C    -2.640000000     2.154000000     3.591000000
H    -3.610000000     2.624000000     3.455000000
C    -2.656000000     0.843000000     4.073000000
C    -3.900000000    -0.013000000     4.060000000
H    -4.786000000     0.593000000     4.257000000
H    -3.751000000    -0.669000000     4.921000000
C    -4.050000000    -0.935000000     2.822000000
C    -4.762000000    -0.393000000     1.787000000
H    -5.181000000     0.603000000     1.904000000
C    -3.408000000    -2.144000000     2.649000000
C    -3.483000000    -2.776000000     1.390000000
H    -2.849000000    -3.640000000     1.205000000
C    -4.113000000    -2.225000000     0.278000000
O    -3.986000000    -2.722000000    -0.954000000
C    -2.957000000    -2.093000000    -1.724000000
C    -2.030000000    -3.198000000    -2.313000000
C    -1.598000000    -3.101000000    -3.622000000
H    -1.934000000    -2.257000000    -4.219000000
C    -1.625000000    -4.258000000    -1.504000000
H    -2.015000000    -4.308000000    -0.491000000
O    -3.633000000    -1.411000000    -2.732000000
H    -2.393000000    -1.342000000    -1.151000000
C    -4.778000000    -0.990000000     0.472000000
C    -5.359000000    -0.289000000    -0.730000000
H    -6.102000000     0.407000000    -0.337000000
H    -5.917000000    -0.982000000    -1.363000000
C    -4.351000000     0.498000000    -1.586000000
C    -4.290000000     1.891000000    -1.362000000
H    -4.773000000     2.317000000    -0.486000000
C    -3.659000000    -0.092000000    -2.600000000
C    -2.881000000     0.689000000    -3.476000000
H    -2.415000000     0.186000000    -4.319000000
C    -2.815000000     2.094000000    -3.299000000
O    -1.821000000     2.717000000    -3.995000000
C    -0.635000000     2.955000000    -3.314000000
C     0.590000000     2.665000000    -4.197000000
C     0.538000000     1.660000000    -5.175000000
H    -0.353000000     1.091000000    -5.431000000
C     1.865000000     3.139000000    -3.912000000
H     2.027000000     3.800000000    -3.065000000
O    -0.566000000     4.276000000    -2.813000000
H    -0.562000000     2.204000000    -2.513000000
C    -3.488000000     2.679000000    -2.200000000
C    -3.304000000     4.219000000    -1.870000000
H    -4.210000000     4.494000000    -1.325000000
H    -3.241000000     4.970000000    -2.660000000
C    -2.031000000     4.260000000    -0.945000000
C    -0.768000000     4.374000000    -1.420000000
C     0.315000000     4.360000000    -0.455000000
H     1.331000000     4.204000000    -0.810000000
C     0.023000000     4.331000000     0.948000000
O     1.069000000     4.329000000     1.836000000
C     1.438000000     3.057000000     2.315000000
H     1.014000000     2.259000000     1.688000000
C     2.963000000     2.967000000     2.300000000
C     3.589000000     2.204000000     3.288000000
H     3.003000000     1.643000000     4.012000000
C     3.736000000     3.499000000     1.297000000
H     3.177000000     4.015000000     0.520000000
C     5.103000000     3.494000000     1.251000000
O     5.836000000     4.069000000     0.229000000
C     5.696000000     2.748000000     2.245000000
H     6.780000000     2.681000000     2.231000000
C     4.980000000     2.094000000     3.310000000
O     5.592000000     1.309000000     4.354000000
C     4.892000000     0.333000000     5.048000000
C     4.506000000    -0.803000000     4.266000000
H     4.805000000    -0.936000000     3.230000000
C     4.570000000     0.269000000     6.421000000
H     4.846000000     1.087000000     7.082000000
C     3.916000000    -0.825000000     6.906000000
H     3.673000000    -0.902000000     7.962000000
C     3.499000000    -1.907000000     6.108000000
H     2.957000000    -2.777000000     6.470000000
C     3.802000000    -1.900000000     4.787000000
O     3.417000000    -3.010000000     4.010000000
C     2.148000000    -3.486000000     4.114000000
C     1.933000000    -4.861000000     3.883000000
H     2.745000000    -5.567000000     3.733000000
C     0.615000000    -5.264000000     3.665000000
O     0.388000000    -6.624000000     3.415000000
C    -0.407000000    -6.852000000     2.331000000
C     0.090000000    -6.433000000     1.096000000
H     1.076000000    -6.016000000     0.905000000
C    -1.719000000    -7.375000000     2.462000000
H    -2.180000000    -7.383000000     3.446000000
C    -2.533000000    -7.519000000     1.342000000
H    -3.574000000    -7.823000000     1.426000000
C    -2.026000000    -7.072000000     0.117000000
H    -2.564000000    -7.246000000    -0.812000000
C    -0.707000000    -6.591000000    -0.023000000
O    -0.203000000    -6.251000000    -1.241000000
C    -0.745000000    -5.231000000    -2.008000000
C    -0.228000000    -5.048000000    -3.290000000
H     0.502000000    -5.784000000    -3.617000000
C    -0.536000000    -3.963000000    -4.041000000
O    -0.100000000    -3.859000000    -5.380000000
C    -0.151000000    -2.740000000    -6.207000000
C     0.722000000    -1.676000000    -6.126000000
H     1.474000000    -1.815000000    -5.353000000
C    -1.176000000    -2.696000000    -7.151000000
H    -1.849000000    -3.549000000    -7.164000000
C    -1.308000000    -1.614000000    -8.074000000
H    -2.148000000    -1.634000000    -8.763000000
C    -0.407000000    -0.518000000    -7.942000000
H    -0.506000000     0.367000000    -8.566000000
C     0.572000000    -0.572000000    -6.972000000
O     1.543000000     0.403000000    -6.986000000
C     1.705000000     1.301000000    -5.940000000
C     2.952000000     1.776000000    -5.554000000
H     3.785000000     1.523000000    -6.205000000
C     3.048000000     2.757000000    -4.598000000
O     4.275000000     3.314000000    -4.306000000
C     4.526000000     4.135000000    -3.248000000
C     4.563000000     5.518000000    -3.488000000
H     4.429000000     5.791000000    -4.531000000
C     4.976000000     6.384000000    -2.499000000
H     5.131000000     7.436000000    -2.724000000
C     5.371000000     5.858000000    -1.233000000
H     5.690000000     6.626000000    -0.532000000
C     5.271000000     4.466000000    -0.954000000
C     4.770000000     3.602000000    -1.961000000
H     4.803000000     2.545000000    -1.710000000
C     1.053000000    -1.809000000    -1.901000000
H     1.207000000    -2.232000000    -2.890000000
C     0.281000000    -0.683000000    -1.762000000
H    -0.207000000    -0.106000000    -2.544000000
C    -0.040000000    -0.133000000    -0.489000000
H    -0.744000000     0.718000000    -0.442000000
C     0.626000000    -0.705000000     0.577000000
H     0.386000000    -0.335000000     1.571000000
C     1.411000000    -1.823000000     0.450000000
H     1.846000000    -2.317000000     1.315000000
C     1.646000000    -2.437000000    -0.801000000
C     2.514000000    -3.599000000    -1.040000000
O     2.911000000    -4.327000000    -0.126000000
O     2.911000000    -3.705000000    -2.204000000
O     1.069000000    -8.799000000    -1.862000000
H     0.120000000    -8.787000000    -1.737000000
H     1.406000000    -8.197000000    -1.199000000
O     5.437000000    -1.121000000    -1.968000000
H     5.950000000    -0.316000000    -1.895000000
H     5.421000000    -1.476000000    -1.079000000
O     1.303000000    -6.923000000    -6.691000000
H     1.561000000    -7.417000000    -5.913000000
H     0.446000000    -7.279000000    -6.927000000
O     2.992000000    -8.056000000     2.719000000
H     2.590000000    -8.079000000     3.588000000
H     2.377000000    -7.554000000     2.184000000
O     5.981000000    -4.319000000    -5.374000000
H     5.258000000    -4.904000000    -5.600000000
H     5.556000000    -3.535000000    -5.027000000
O     5.163000000    -7.773000000     0.880000000
H     4.713000000    -7.806000000     1.724000000
H     6.094000000    -7.782000000     1.104000000
O     3.303000000     0.892000000    -1.057000000
H     2.560000000     0.290000000    -1.087000000
H     4.035000000     0.388000000    -1.414000000
O     2.174000000    -8.364000000    -4.268000000
H     1.868000000    -8.531000000    -3.376000000
H     2.643000000    -7.532000000    -4.208000000
O     5.686000000    -0.708000000    -5.801000000
H     5.206000000    -1.407000000    -5.358000000
H     6.037000000    -0.171000000    -5.090000000
O     5.596000000    -5.119000000    -1.698000000
H     5.845000000    -5.675000000    -0.959000000
H     4.755000000    -4.742000000    -1.440000000
O     5.709000000    -2.775000000     0.926000000
H     4.885000000    -3.257000000     0.989000000
H     6.362000000    -3.368000000     1.300000000
O     3.571000000    -5.378000000    -6.071000000
H     3.682000000    -5.676000000    -5.168000000
H     2.851000000    -5.909000000    -6.411000000
O     7.402000000    -0.393000000     0.870000000
H     7.620000000    -0.118000000     1.761000000
H     7.200000000    -1.325000000     0.950000000
O     7.185000000     1.134000000    -1.451000000
H     7.021000000     0.710000000    -0.609000000
H     7.840000000     1.805000000    -1.258000000
O     7.194000000    -6.713000000    -3.520000000
H     6.668000000    -6.115000000    -2.989000000
H     7.326000000    -6.248000000    -4.346000000
O     3.049000000    -6.970000000    -0.699000000
H     2.888000000    -6.059000000    -0.455000000
H     3.447000000    -7.360000000     0.080000000
O     3.229000000    -6.055000000    -3.472000000
H     3.166000000    -5.206000000    -3.032000000
H     3.425000000    -6.674000000    -2.769000000
O     4.469000000    -2.499000000    -4.077000000
H     3.861000000    -3.111000000    -3.663000000
H     4.825000000    -1.987000000    -3.351000000
O     7.400000000    -3.284000000    -1.711000000
H     6.951000000    -2.475000000    -1.469000000
H     6.696000000    -3.918000000    -1.845000000
