215
-1483.17486
C    -0.188000000    -3.035000000     3.704000000
H    -0.659000000    -3.419000000     2.803000000
C    -0.552000000    -1.822000000     4.301000000
C     0.363000000    -1.193000000     5.203000000
H     0.232000000    -0.168000000     5.540000000
C    -1.811000000    -1.052000000     3.920000000
O    -2.983000000    -1.811000000     3.749000000
H    -1.595000000    -0.590000000     2.945000000
O    -2.096000000     0.099000000     4.717000000
C    -2.195000000     1.290000000     4.057000000
C    -1.009000000     2.017000000     3.952000000
H    -0.073000000     1.589000000     4.301000000
C    -0.963000000     3.192000000     3.185000000
O     0.269000000     3.752000000     2.923000000
C    -2.146000000     3.650000000     2.575000000
C    -2.122000000     4.843000000     1.649000000
H    -3.124000000     5.278000000     1.627000000
C    -1.765000000     4.529000000     0.191000000
C    -2.767000000     4.134000000    -0.763000000
H    -3.792000000     4.058000000    -0.411000000
H    -1.546000000     5.667000000     2.076000000
C    -3.298000000     2.899000000     2.612000000
H    -4.157000000     3.319000000     2.094000000
C    -3.374000000     1.697000000     3.379000000
C    -4.585000000     0.754000000     3.342000000
H    -5.546000000     1.241000000     3.167000000
H    -4.626000000     0.254000000     4.313000000
C    -4.429000000    -0.403000000     2.305000000
C    -4.983000000    -0.236000000     1.014000000
H    -5.420000000     0.700000000     0.675000000
C    -3.698000000    -1.575000000     2.562000000
C    -3.410000000    -2.459000000     1.529000000
H    -2.792000000    -3.319000000     1.772000000
C    -4.033000000    -2.290000000     0.285000000
O    -3.724000000    -3.106000000    -0.742000000
C    -2.621000000    -2.758000000    -1.616000000
C    -1.627000000    -3.943000000    -1.716000000
C    -0.813000000    -4.054000000    -2.825000000
H    -0.907000000    -3.273000000    -3.575000000
C    -1.611000000    -4.988000000    -0.761000000
H    -2.178000000    -4.832000000     0.154000000
O    -3.192000000    -2.373000000    -2.847000000
H    -1.964000000    -1.987000000    -1.187000000
C    -4.826000000    -1.168000000    -0.005000000
C    -5.453000000    -0.915000000    -1.351000000
H    -6.383000000    -0.342000000    -1.362000000
H    -5.731000000    -1.877000000    -1.787000000
C    -4.367000000    -0.315000000    -2.225000000
C    -4.356000000     1.074000000    -2.271000000
H    -5.150000000     1.597000000    -1.745000000
C    -3.388000000    -1.015000000    -2.925000000
C    -2.492000000    -0.361000000    -3.747000000
H    -1.706000000    -0.927000000    -4.240000000
C    -2.426000000     1.017000000    -3.708000000
O    -1.434000000     1.479000000    -4.532000000
C    -0.301000000     2.076000000    -3.843000000
C     1.032000000     1.810000000    -4.584000000
C     1.241000000     0.482000000    -5.012000000
H     0.419000000    -0.228000000    -5.053000000
C     2.035000000     2.784000000    -4.668000000
H     1.910000000     3.754000000    -4.194000000
O    -0.513000000     3.429000000    -3.660000000
H    -0.201000000     1.541000000    -2.887000000
C    -3.458000000     1.717000000    -3.057000000
C    -3.408000000     3.228000000    -2.987000000
H    -4.428000000     3.526000000    -2.735000000
H    -3.418000000     3.601000000    -4.014000000
C    -2.335000000     3.806000000    -2.050000000
C    -1.006000000     3.923000000    -2.466000000
C    -0.050000000     4.378000000    -1.567000000
H     1.012000000     4.447000000    -1.786000000
C    -0.405000000     4.576000000    -0.230000000
O     0.633000000     4.714000000     0.661000000
C     0.859000000     3.532000000     1.606000000
H     0.490000000     2.652000000     1.059000000
C     2.388000000     3.256000000     1.687000000
C     2.913000000     2.756000000     2.837000000
H     2.348000000     2.620000000     3.756000000
C     3.254000000     3.400000000     0.569000000
H     2.818000000     3.628000000    -0.401000000
C     4.564000000     2.969000000     0.664000000
O     5.223000000     2.835000000    -0.542000000
C     5.082000000     2.366000000     1.801000000
H     5.979000000     1.752000000     1.800000000
C     4.280000000     2.321000000     2.944000000
O     4.719000000     1.696000000     4.064000000
C     4.040000000     1.440000000     5.226000000
C     3.504000000     0.194000000     5.315000000
H     3.768000000    -0.586000000     4.607000000
C     3.975000000     2.392000000     6.249000000
H     4.358000000     3.407000000     6.183000000
C     3.249000000     2.041000000     7.403000000
H     3.181000000     2.660000000     8.293000000
C     2.563000000     0.832000000     7.385000000
H     1.908000000     0.504000000     8.187000000
C     2.805000000    -0.162000000     6.432000000
O     2.308000000    -1.408000000     6.578000000
C     1.450000000    -1.901000000     5.628000000
C     1.734000000    -3.204000000     5.163000000
H     2.644000000    -3.742000000     5.416000000
C     0.917000000    -3.714000000     4.184000000
O     1.254000000    -4.977000000     3.681000000
C     0.339000000    -5.798000000     3.101000000
C     0.345000000    -6.015000000     1.708000000
H     0.951000000    -5.453000000     1.002000000
C    -0.546000000    -6.506000000     3.948000000
H    -0.562000000    -6.378000000     5.027000000
C    -1.437000000    -7.461000000     3.405000000
H    -2.018000000    -8.027000000     4.128000000
C    -1.520000000    -7.622000000     2.035000000
H    -2.130000000    -8.406000000     1.593000000
C    -0.619000000    -6.924000000     1.199000000
O    -0.753000000    -7.083000000    -0.177000000
C    -0.739000000    -6.065000000    -1.021000000
C     0.052000000    -6.112000000    -2.105000000
H     0.673000000    -6.962000000    -2.375000000
C     0.039000000    -5.084000000    -3.009000000
O     0.766000000    -5.178000000    -4.157000000
C     0.888000000    -4.116000000    -5.048000000
C     1.859000000    -3.073000000    -5.015000000
H     2.673000000    -3.124000000    -4.297000000
C    -0.003000000    -4.146000000    -6.150000000
H    -0.726000000    -4.956000000    -6.194000000
C     0.027000000    -3.117000000    -7.175000000
H    -0.612000000    -3.078000000    -8.054000000
C     0.932000000    -2.083000000    -7.056000000
H     0.889000000    -1.244000000    -7.745000000
C     1.934000000    -2.116000000    -6.060000000
O     2.870000000    -1.136000000    -5.943000000
C     2.516000000     0.156000000    -5.509000000
C     3.508000000     1.164000000    -5.656000000
H     4.420000000     0.931000000    -6.199000000
C     3.235000000     2.482000000    -5.278000000
O     4.243000000     3.395000000    -5.168000000
C     4.623000000     3.955000000    -3.954000000
C     5.076000000     5.282000000    -3.913000000
H     5.158000000     5.942000000    -4.773000000
C     5.635000000     5.818000000    -2.757000000
H     5.960000000     6.855000000    -2.731000000
C     5.650000000     5.062000000    -1.581000000
H     6.058000000     5.520000000    -0.684000000
C     5.160000000     3.736000000    -1.587000000
C     4.675000000     3.185000000    -2.757000000
H     4.371000000     2.148000000    -2.870000000
C     0.972000000    -1.328000000    -0.615000000
H     0.732000000    -1.840000000    -1.543000000
C     0.062000000    -0.390000000    -0.154000000
H    -0.773000000    -0.173000000    -0.815000000
C     0.210000000     0.233000000     1.068000000
H    -0.559000000     0.911000000     1.382000000
C     1.336000000    -0.039000000     1.849000000
H     1.532000000     0.470000000     2.789000000
C     2.252000000    -0.943000000     1.397000000
H     3.109000000    -1.122000000     2.042000000
C     2.047000000    -1.664000000     0.199000000
C     3.019000000    -2.772000000    -0.255000000
O     3.796000000    -3.255000000     0.557000000
O     3.095000000    -3.177000000    -1.377000000
O     2.338000000    -8.293000000     0.483000000
H     2.395000000    -8.748000000     1.323000000
H     2.651000000    -7.408000000     0.668000000
O     8.187000000     0.297000000     0.082000000
H     8.907000000    -0.318000000     0.223000000
H     7.594000000     0.144000000     0.818000000
O     4.600000000    -2.723000000     3.228000000
H     4.563000000    -3.664000000     3.401000000
H     4.149000000    -2.616000000     2.390000000
O     4.346000000    -5.308000000    -5.141000000
H     3.988000000    -5.316000000    -4.253000000
H     5.295000000    -5.299000000    -5.016000000
O     5.853000000     0.165000000    -1.232000000
H     5.460000000     0.703000000    -0.546000000
H     6.793000000     0.202000000    -1.057000000
O     3.951000000    -5.439000000     3.761000000
H     3.122000000    -5.672000000     3.343000000
H     3.820000000    -5.647000000     4.686000000
O     5.359000000    -2.417000000    -5.331000000
H     4.744000000    -1.857000000    -4.858000000
H     5.114000000    -3.307000000    -5.080000000
O     6.404000000    -3.463000000    -0.364000000
H     6.752000000    -2.804000000     0.236000000
H     5.462000000    -3.472000000    -0.191000000
O     6.963000000    -1.570000000     2.094000000
H     6.212000000    -1.740000000     2.663000000
H     7.704000000    -1.967000000     2.551000000
O     5.924000000    -6.645000000     1.703000000
H     5.265000000    -5.958000000     1.602000000
H     5.518000000    -7.282000000     2.290000000
O     7.292000000    -2.147000000    -2.703000000
H     6.796000000    -2.294000000    -1.898000000
H     6.673000000    -1.710000000    -3.289000000
O     4.603000000    -7.913000000    -2.898000000
H     4.142000000    -8.488000000    -2.288000000
H     4.522000000    -7.040000000    -2.513000000
O     9.226000000    -3.703000000    -1.269000000
H     8.448000000    -3.871000000    -1.800000000
H     9.304000000    -4.475000000    -0.708000000
O     3.478000000    -5.981000000     0.553000000
H     3.460000000    -5.027000000     0.486000000
H     3.446000000    -6.286000000    -0.354000000
O     3.338000000    -5.574000000    -2.241000000
H     2.458000000    -5.851000000    -2.495000000
H     3.248000000    -4.641000000    -2.047000000
O     6.508000000    -6.089000000    -1.129000000
H     6.210000000    -6.497000000    -0.316000000
H     6.243000000    -5.173000000    -1.048000000
O     4.154000000    -1.076000000    -3.003000000
H     3.651000000    -1.634000000    -2.411000000
H     4.789000000    -0.637000000    -2.438000000
O     6.625000000    -5.681000000     5.110000000
H     6.453000000    -5.345000000     4.230000000
H     5.765000000    -5.943000000     5.439000000
O     6.930000000    -5.422000000    -4.174000000
H     7.381000000    -6.209000000    -4.478000000
H     6.901000000    -5.515000000    -3.222000000
