215
-1455.66632
C    -0.538000000    -4.418000000     3.092000000
H    -1.491000000    -4.515000000     2.579000000
C    -0.310000000    -3.174000000     3.539000000
C     0.945000000    -2.886000000     4.145000000
H     1.135000000    -1.876000000     4.499000000
C    -1.385000000    -2.015000000     3.396000000
O    -2.724000000    -2.578000000     3.425000000
H    -1.248000000    -1.513000000     2.427000000
O    -1.128000000    -1.016000000     4.433000000
C    -1.391000000     0.351000000     4.219000000
C    -0.309000000     1.214000000     4.191000000
H     0.695000000     0.881000000     4.441000000
C    -0.356000000     2.487000000     3.635000000
O     0.822000000     3.178000000     3.627000000
C    -1.631000000     3.062000000     3.406000000
C    -1.786000000     4.547000000     3.051000000
H    -2.804000000     4.926000000     3.164000000
C    -1.396000000     4.840000000     1.580000000
C    -2.438000000     4.715000000     0.669000000
H    -3.470000000     4.612000000     0.996000000
H    -1.224000000     5.232000000     3.690000000
C    -2.749000000     2.168000000     3.454000000
H    -3.730000000     2.514000000     3.137000000
C    -2.684000000     0.824000000     3.893000000
C    -3.918000000    -0.027000000     4.013000000
H    -4.692000000     0.669000000     4.344000000
H    -4.008000000    -0.602000000     4.937000000
C    -4.243000000    -0.780000000     2.747000000
C    -4.832000000    -0.151000000     1.651000000
H    -5.022000000     0.919000000     1.699000000
C    -3.671000000    -2.066000000     2.532000000
C    -3.905000000    -2.767000000     1.367000000
H    -3.384000000    -3.696000000     1.151000000
C    -4.489000000    -2.077000000     0.298000000
O    -4.323000000    -2.622000000    -0.960000000
C    -3.164000000    -2.205000000    -1.746000000
C    -2.492000000    -3.389000000    -2.471000000
C    -1.780000000    -3.216000000    -3.632000000
H    -1.734000000    -2.251000000    -4.132000000
C    -2.294000000    -4.590000000    -1.764000000
H    -2.740000000    -4.763000000    -0.788000000
O    -3.680000000    -1.248000000    -2.703000000
H    -2.459000000    -1.676000000    -1.088000000
C    -4.932000000    -0.751000000     0.390000000
C    -5.566000000    -0.095000000    -0.808000000
H    -6.434000000     0.489000000    -0.497000000
H    -5.959000000    -0.895000000    -1.440000000
C    -4.540000000     0.752000000    -1.633000000
C    -4.429000000     2.173000000    -1.407000000
H    -4.991000000     2.810000000    -0.728000000
C    -3.701000000     0.080000000    -2.535000000
C    -2.763000000     0.835000000    -3.216000000
H    -1.992000000     0.354000000    -3.813000000
C    -2.618000000     2.177000000    -2.990000000
O    -1.339000000     2.569000000    -3.469000000
C    -0.252000000     3.033000000    -2.658000000
C     1.046000000     2.654000000    -3.403000000
C     1.067000000     1.402000000    -4.098000000
H     0.199000000     0.763000000    -3.961000000
C     2.178000000     3.399000000    -3.375000000
H     2.173000000     4.390000000    -2.928000000
O    -0.451000000     4.420000000    -2.376000000
H    -0.263000000     2.493000000    -1.700000000
C    -3.431000000     2.865000000    -2.127000000
C    -3.203000000     4.285000000    -1.805000000
H    -4.102000000     4.772000000    -1.421000000
H    -2.906000000     4.831000000    -2.703000000
C    -2.169000000     4.624000000    -0.711000000
C    -0.838000000     4.709000000    -1.141000000
C     0.180000000     4.890000000    -0.213000000
H     1.206000000     4.873000000    -0.570000000
C    -0.104000000     4.949000000     1.146000000
O     0.973000000     4.855000000     1.965000000
C     1.397000000     3.468000000     2.267000000
H     0.886000000     2.819000000     1.541000000
C     2.934000000     3.152000000     2.093000000
C     3.332000000     1.862000000     2.477000000
H     2.699000000     1.080000000     2.890000000
C     3.781000000     4.019000000     1.469000000
H     3.341000000     4.972000000     1.185000000
C     5.087000000     3.574000000     1.198000000
O     5.927000000     4.390000000     0.565000000
C     5.551000000     2.361000000     1.702000000
H     6.590000000     2.063000000     1.583000000
C     4.660000000     1.518000000     2.342000000
O     5.136000000     0.258000000     2.723000000
C     4.616000000    -0.392000000     3.857000000
C     4.171000000    -1.717000000     3.742000000
H     4.057000000    -2.110000000     2.735000000
C     4.741000000     0.134000000     5.166000000
H     5.197000000     1.112000000     5.292000000
C     4.338000000    -0.568000000     6.320000000
H     4.514000000    -0.174000000     7.318000000
C     3.798000000    -1.835000000     6.125000000
H     3.464000000    -2.390000000     6.997000000
C     3.680000000    -2.387000000     4.827000000
O     3.218000000    -3.659000000     4.670000000
C     1.923000000    -3.844000000     4.146000000
C     1.682000000    -5.086000000     3.624000000
H     2.446000000    -5.835000000     3.814000000
C     0.427000000    -5.380000000     3.073000000
O     0.176000000    -6.707000000     2.665000000
C    -0.925000000    -6.937000000     1.859000000
C    -0.814000000    -6.651000000     0.459000000
H     0.060000000    -6.082000000     0.156000000
C    -1.970000000    -7.753000000     2.301000000
H    -2.083000000    -8.042000000     3.343000000
C    -3.048000000    -8.039000000     1.451000000
H    -3.923000000    -8.601000000     1.770000000
C    -2.907000000    -7.730000000     0.109000000
H    -3.669000000    -8.085000000    -0.581000000
C    -1.776000000    -7.118000000    -0.407000000
O    -1.631000000    -6.913000000    -1.770000000
C    -1.570000000    -5.621000000    -2.323000000
C    -1.011000000    -5.492000000    -3.616000000
H    -0.582000000    -6.361000000    -4.110000000
C    -0.991000000    -4.253000000    -4.224000000
O    -0.378000000    -4.142000000    -5.467000000
C    -0.062000000    -2.907000000    -5.987000000
C     0.835000000    -2.061000000    -5.331000000
H     1.317000000    -2.528000000    -4.476000000
C    -0.733000000    -2.438000000    -7.103000000
H    -1.351000000    -3.139000000    -7.658000000
C    -0.435000000    -1.198000000    -7.633000000
H    -0.782000000    -0.860000000    -8.606000000
C     0.531000000    -0.338000000    -6.971000000
H     0.980000000     0.526000000    -7.455000000
C     1.187000000    -0.853000000    -5.886000000
O     2.324000000    -0.142000000    -5.394000000
C     2.203000000     1.018000000    -4.787000000
C     3.365000000     1.766000000    -4.628000000
H     4.260000000     1.503000000    -5.186000000
C     3.360000000     2.937000000    -3.908000000
O     4.528000000     3.657000000    -4.002000000
C     5.074000000     4.474000000    -3.086000000
C     5.630000000     5.628000000    -3.512000000
H     5.545000000     6.025000000    -4.520000000
C     6.250000000     6.324000000    -2.573000000
H     6.713000000     7.239000000    -2.931000000
C     6.369000000     6.021000000    -1.236000000
H     6.853000000     6.699000000    -0.538000000
C     5.811000000     4.801000000    -0.811000000
C     5.083000000     4.075000000    -1.742000000
H     4.647000000     3.147000000    -1.381000000
C     0.749000000    -2.586000000    -1.355000000
H     0.535000000    -2.858000000    -2.385000000
C     0.447000000    -1.301000000    -0.892000000
H    -0.151000000    -0.677000000    -1.550000000
C     0.792000000    -0.872000000     0.350000000
H     0.463000000     0.058000000     0.727000000
C     1.490000000    -1.744000000     1.183000000
H     1.592000000    -1.284000000     2.162000000
C     1.892000000    -2.961000000     0.772000000
H     2.434000000    -3.636000000     1.430000000
C     1.566000000    -3.410000000    -0.491000000
C     2.028000000    -4.739000000    -1.059000000
O     2.749000000    -5.569000000    -0.485000000
O     2.060000000    -4.812000000    -2.326000000
O     0.762000000    -9.727000000    -1.508000000
H     0.180000000   -10.255000000    -0.961000000
H     1.335000000    -9.280000000    -0.886000000
O     4.096000000   -10.308000000     1.343000000
H     4.535000000    -9.641000000     0.815000000
H     3.379000000    -9.841000000     1.772000000
O     2.410000000    -8.817000000     2.917000000
H     3.235000000    -8.471000000     3.258000000
H     1.740000000    -8.444000000     3.491000000
O     4.126000000    -3.009000000    -6.576000000
H     3.466000000    -3.415000000    -6.014000000
H     4.584000000    -2.395000000    -6.001000000
O     6.238000000    -7.306000000     1.932000000
H     6.044000000    -7.555000000     2.835000000
H     5.891000000    -8.026000000     1.405000000
O     3.734000000     0.108000000    -1.051000000
H     3.221000000    -0.632000000    -1.377000000
H     3.410000000     0.249000000    -0.161000000
O     4.427000000    -9.024000000    -2.680000000
H     3.566000000    -9.419000000    -2.544000000
H     4.726000000    -9.383000000    -3.516000000
O     5.098000000    -1.052000000    -4.428000000
H     5.513000000    -0.445000000    -3.815000000
H     4.420000000    -1.489000000    -3.911000000
O     4.875000000    -6.235000000    -1.952000000
H     4.839000000    -7.154000000    -1.687000000
H     4.111000000    -5.836000000    -1.536000000
O     4.712000000    -5.018000000     1.403000000
H     4.017000000    -5.291000000     0.804000000
H     5.190000000    -5.823000000     1.598000000
O     2.484000000    -5.487000000    -4.875000000
H     2.804000000    -6.380000000    -5.003000000
H     2.153000000    -5.477000000    -3.977000000
O     0.287000000    -6.658000000    -6.651000000
H     0.590000000    -5.864000000    -6.210000000
H    -0.602000000    -6.790000000    -6.323000000
O     5.909000000    -2.897000000     0.257000000
H     6.558000000    -2.612000000     0.900000000
H     5.577000000    -3.725000000     0.601000000
O     5.881000000    -8.988000000    -0.469000000
H     5.582000000    -9.097000000    -1.371000000
H     6.826000000    -9.137000000    -0.510000000
O     5.869000000    -6.135000000    -4.494000000
H     5.525000000    -6.210000000    -3.605000000
H     5.337000000    -5.450000000    -4.900000000
O     2.026000000    -8.017000000     0.228000000
H     2.182000000    -7.149000000    -0.143000000
H     2.190000000    -7.911000000     1.165000000
O     1.789000000    -7.700000000    -3.282000000
H     1.909000000    -7.057000000    -2.584000000
H     1.212000000    -8.362000000    -2.901000000
O     3.558000000    -2.347000000    -2.680000000
H     3.122000000    -3.196000000    -2.743000000
H     4.144000000    -2.433000000    -1.928000000
O     6.838000000    -4.083000000    -2.093000000
H     6.545000000    -3.622000000    -1.307000000
H     6.207000000    -4.794000000    -2.203000000
