215
-1446.06382
C     0.227000000    -3.219000000     3.781000000
H    -0.385000000    -3.775000000     3.075000000
C    -0.101000000    -1.935000000     4.183000000
C     0.800000000    -1.212000000     5.042000000
H     0.657000000    -0.214000000     5.450000000
C    -1.382000000    -1.222000000     3.712000000
O    -2.416000000    -2.233000000     3.591000000
H    -1.249000000    -0.773000000     2.717000000
O    -1.650000000    -0.129000000     4.624000000
C    -2.090000000     1.058000000     4.065000000
C    -1.106000000     2.004000000     3.823000000
H    -0.074000000     1.861000000     4.131000000
C    -1.449000000     3.059000000     2.983000000
O    -0.397000000     3.896000000     2.689000000
C    -2.729000000     3.206000000     2.389000000
C    -2.917000000     4.377000000     1.433000000
H    -3.999000000     4.509000000     1.369000000
C    -2.414000000     4.147000000    -0.026000000
C    -3.317000000     3.565000000    -0.921000000
H    -4.357000000     3.461000000    -0.623000000
H    -2.684000000     5.339000000     1.895000000
C    -3.672000000     2.233000000     2.658000000
H    -4.636000000     2.222000000     2.156000000
C    -3.349000000     1.100000000     3.438000000
C    -4.320000000    -0.048000000     3.394000000
H    -5.373000000     0.224000000     3.289000000
H    -4.239000000    -0.621000000     4.320000000
C    -4.066000000    -1.019000000     2.264000000
C    -4.722000000    -0.973000000     0.981000000
H    -5.367000000    -0.154000000     0.674000000
C    -3.215000000    -2.170000000     2.499000000
C    -3.080000000    -3.188000000     1.564000000
H    -2.439000000    -4.040000000     1.776000000
C    -3.696000000    -3.118000000     0.378000000
O    -3.381000000    -3.920000000    -0.658000000
C    -2.398000000    -3.446000000    -1.580000000
C    -1.259000000    -4.405000000    -1.885000000
C    -0.503000000    -4.399000000    -3.149000000
H    -0.619000000    -3.565000000    -3.835000000
C    -0.973000000    -5.383000000    -0.934000000
H    -1.420000000    -5.453000000     0.054000000
O    -3.027000000    -3.038000000    -2.869000000
H    -1.912000000    -2.605000000    -1.063000000
C    -4.572000000    -2.045000000     0.067000000
C    -5.197000000    -1.909000000    -1.243000000
H    -6.154000000    -1.417000000    -1.059000000
H    -5.435000000    -2.924000000    -1.569000000
C    -4.296000000    -1.131000000    -2.320000000
C    -4.508000000     0.218000000    -2.436000000
H    -5.366000000     0.632000000    -1.913000000
C    -3.303000000    -1.756000000    -3.052000000
C    -2.451000000    -0.995000000    -3.851000000
H    -1.511000000    -1.399000000    -4.215000000
C    -2.568000000     0.396000000    -3.875000000
O    -1.615000000     1.087000000    -4.558000000
C    -0.663000000     1.858000000    -3.804000000
C     0.744000000     1.821000000    -4.229000000
C     1.230000000     0.516000000    -4.526000000
H     0.543000000    -0.325000000    -4.559000000
C     1.630000000     2.950000000    -4.239000000
H     1.252000000     3.922000000    -3.932000000
O    -1.112000000     3.166000000    -3.808000000
H    -0.697000000     1.460000000    -2.779000000
C    -3.666000000     0.986000000    -3.210000000
C    -3.824000000     2.514000000    -3.235000000
H    -4.863000000     2.693000000    -2.952000000
H    -3.730000000     2.965000000    -4.225000000
C    -2.929000000     3.261000000    -2.227000000
C    -1.597000000     3.574000000    -2.616000000
C    -0.767000000     4.223000000    -1.766000000
H     0.265000000     4.411000000    -2.052000000
C    -1.160000000     4.574000000    -0.427000000
O    -0.156000000     4.950000000     0.443000000
C     0.270000000     3.804000000     1.374000000
H     0.209000000     2.909000000     0.738000000
C     1.786000000     4.062000000     1.644000000
C     2.260000000     3.551000000     2.872000000
H     1.625000000     3.138000000     3.652000000
C     2.659000000     4.590000000     0.668000000
H     2.302000000     4.976000000    -0.283000000
C     4.024000000     4.513000000     0.887000000
O     4.861000000     4.936000000    -0.139000000
C     4.561000000     3.961000000     2.039000000
H     5.639000000     3.898000000     2.168000000
C     3.670000000     3.504000000     3.075000000
O     4.207000000     3.120000000     4.248000000
C     3.513000000     2.401000000     5.204000000
C     3.435000000     1.033000000     5.048000000
H     3.748000000     0.562000000     4.120000000
C     3.324000000     3.044000000     6.396000000
H     3.511000000     4.114000000     6.422000000
C     2.975000000     2.303000000     7.524000000
H     2.861000000     2.845000000     8.459000000
C     2.776000000     0.915000000     7.387000000
H     2.598000000     0.284000000     8.254000000
C     2.972000000     0.269000000     6.110000000
O     2.987000000    -1.147000000     6.122000000
C     1.994000000    -1.813000000     5.432000000
C     2.310000000    -3.101000000     4.928000000
H     3.213000000    -3.640000000     5.204000000
C     1.435000000    -3.780000000     4.082000000
O     1.958000000    -4.925000000     3.498000000
C     1.031000000    -5.868000000     3.017000000
C     1.028000000    -6.163000000     1.671000000
H     1.683000000    -5.623000000     0.992000000
C     0.156000000    -6.457000000     3.886000000
H     0.123000000    -6.114000000     4.917000000
C    -0.737000000    -7.483000000     3.397000000
H    -1.328000000    -8.020000000     4.134000000
C    -0.807000000    -7.744000000     2.002000000
H    -1.377000000    -8.588000000     1.621000000
C     0.096000000    -7.037000000     1.162000000
O     0.131000000    -7.288000000    -0.172000000
C    -0.037000000    -6.344000000    -1.154000000
C     0.737000000    -6.371000000    -2.351000000
H     1.606000000    -7.024000000    -2.365000000
C     0.534000000    -5.361000000    -3.321000000
O     1.470000000    -5.233000000    -4.305000000
C     1.549000000    -4.115000000    -5.139000000
C     2.384000000    -3.023000000    -4.734000000
H     2.873000000    -2.998000000    -3.764000000
C     0.789000000    -4.044000000    -6.295000000
H     0.158000000    -4.892000000    -6.548000000
C     0.911000000    -2.920000000    -7.188000000
H     0.483000000    -3.038000000    -8.180000000
C     1.682000000    -1.829000000    -6.800000000
H     1.934000000    -0.978000000    -7.428000000
C     2.404000000    -1.926000000    -5.602000000
O     3.149000000    -0.802000000    -5.147000000
C     2.578000000     0.401000000    -4.819000000
C     3.413000000     1.536000000    -4.879000000
H     4.424000000     1.388000000    -5.251000000
C     2.955000000     2.768000000    -4.604000000
O     3.908000000     3.774000000    -4.696000000
C     4.079000000     4.690000000    -3.675000000
C     4.227000000     5.977000000    -4.068000000
H     4.039000000     6.259000000    -5.101000000
C     4.440000000     7.008000000    -3.136000000
H     4.589000000     8.060000000    -3.368000000
C     4.601000000     6.619000000    -1.789000000
H     4.699000000     7.365000000    -1.004000000
C     4.518000000     5.276000000    -1.362000000
C     4.188000000     4.306000000    -2.316000000
H     4.164000000     3.265000000    -2.006000000
C     1.234000000    -2.003000000    -0.876000000
H     1.382000000    -2.840000000    -1.554000000
C     0.260000000    -0.993000000    -1.166000000
H    -0.331000000    -0.892000000    -2.073000000
C     0.050000000     0.002000000    -0.225000000
H    -0.562000000     0.799000000    -0.491000000
C     0.746000000    -0.072000000     0.994000000
H     0.532000000     0.757000000     1.664000000
C     1.791000000    -0.973000000     1.221000000
H     2.312000000    -0.929000000     2.174000000
C     2.029000000    -2.005000000     0.249000000
C     3.132000000    -3.012000000     0.342000000
O     3.723000000    -3.136000000     1.393000000
O     3.359000000    -3.830000000    -0.574000000
O     5.692000000     0.478000000    -3.084000000
H     5.537000000    -0.370000000    -3.500000000
H     4.985000000     0.563000000    -2.444000000
O     4.868000000     0.135000000     0.940000000
H     5.147000000    -0.780000000     0.980000000
H     5.178000000     0.516000000     1.761000000
O     4.794000000    -1.615000000     3.294000000
H     4.632000000    -2.266000000     3.976000000
H     4.342000000    -1.958000000     2.523000000
O     3.452000000     0.360000000    -1.250000000
H     2.507000000     0.349000000    -1.101000000
H     3.827000000     0.578000000    -0.397000000
O     5.572000000    -5.219000000     4.615000000
H     5.273000000    -5.330000000     3.713000000
H     5.091000000    -5.881000000     5.111000000
O     8.236000000    -0.788000000     0.207000000
H     8.574000000    -0.552000000     1.071000000
H     7.379000000    -1.177000000     0.384000000
O     5.549000000    -2.312000000    -5.399000000
H     5.423000000    -3.193000000    -5.046000000
H     4.679000000    -1.914000000    -5.365000000
O     6.251000000    -2.824000000     0.575000000
H     6.633000000    -3.507000000     1.126000000
H     5.311000000    -3.004000000     0.588000000
O     6.503000000     0.577000000     3.113000000
H     6.259000000    -0.269000000     3.487000000
H     7.417000000     0.698000000     3.372000000
O     6.257000000    -7.873000000     1.937000000
H     5.686000000    -7.110000000     2.016000000
H     5.953000000    -8.472000000     2.619000000
O     7.506000000    -4.927000000     2.205000000
H     8.180000000    -4.437000000     2.675000000
H     6.865000000    -5.158000000     2.877000000
O     7.008000000    -3.321000000    -2.932000000
H     7.043000000    -4.007000000    -2.265000000
H     6.167000000    -2.889000000    -2.787000000
O     3.040000000    -8.754000000     1.869000000
H     2.583000000    -9.293000000     2.516000000
H     3.680000000    -8.259000000     2.380000000
O     4.168000000    -8.274000000    -2.846000000
H     5.034000000    -8.638000000    -2.663000000
H     4.291000000    -7.326000000    -2.792000000
O     9.466000000    -3.246000000    -0.489000000
H     8.869000000    -2.537000000    -0.250000000
H     9.338000000    -3.906000000     0.192000000
O     4.442000000    -5.655000000     2.180000000
H     4.409000000    -4.740000000     1.901000000
H     3.525000000    -5.909000000     2.278000000
O     4.088000000    -5.583000000    -2.490000000
H     3.881000000    -5.189000000    -3.338000000
H     3.629000000    -5.035000000    -1.853000000
O     6.729000000    -6.290000000    -2.367000000
H     6.748000000    -6.785000000    -1.548000000
H     5.852000000    -5.908000000    -2.396000000
O     4.840000000    -1.882000000    -2.362000000
H     4.530000000    -2.623000000    -1.840000000
H     4.227000000    -1.175000000    -2.161000000
