215
-1481.84624
C     0.321000000    -3.278000000     3.855000000
H    -0.403000000    -3.613000000     3.117000000
C     0.190000000    -2.045000000     4.459000000
C     1.284000000    -1.574000000     5.242000000
H     1.256000000    -0.572000000     5.661000000
C    -0.944000000    -1.138000000     4.069000000
O    -2.275000000    -1.734000000     4.269000000
H    -0.849000000    -0.903000000     2.998000000
O    -0.947000000     0.093000000     4.853000000
C    -1.226000000     1.247000000     4.210000000
C    -0.160000000     1.953000000     3.774000000
H     0.848000000     1.625000000     4.015000000
C    -0.354000000     3.172000000     3.113000000
O     0.772000000     3.853000000     2.687000000
C    -1.609000000     3.518000000     2.627000000
C    -1.844000000     4.792000000     1.863000000
H    -2.850000000     5.164000000     2.070000000
C    -1.637000000     4.676000000     0.361000000
C    -2.723000000     4.297000000    -0.433000000
H    -3.688000000     4.220000000     0.061000000
H    -1.217000000     5.574000000     2.296000000
C    -2.703000000     2.770000000     3.031000000
H    -3.718000000     3.033000000     2.746000000
C    -2.519000000     1.619000000     3.840000000
C    -3.716000000     0.762000000     4.170000000
H    -4.650000000     1.302000000     4.341000000
H    -3.457000000     0.235000000     5.091000000
C    -3.844000000    -0.398000000     3.139000000
C    -4.585000000    -0.131000000     1.928000000
H    -5.073000000     0.825000000     1.758000000
C    -3.147000000    -1.616000000     3.259000000
C    -3.175000000    -2.568000000     2.277000000
H    -2.611000000    -3.496000000     2.285000000
C    -3.903000000    -2.298000000     1.145000000
O    -3.819000000    -3.225000000     0.111000000
C    -2.902000000    -2.750000000    -0.954000000
C    -1.996000000    -3.856000000    -1.458000000
C    -1.307000000    -3.770000000    -2.704000000
H    -1.507000000    -2.920000000    -3.351000000
C    -1.720000000    -4.961000000    -0.657000000
H    -2.185000000    -5.043000000     0.322000000
O    -3.634000000    -2.269000000    -2.100000000
H    -2.301000000    -1.887000000    -0.631000000
C    -4.642000000    -1.112000000     0.958000000
C    -5.433000000    -0.835000000    -0.294000000
H    -6.255000000    -0.139000000    -0.117000000
H    -5.951000000    -1.726000000    -0.654000000
C    -4.624000000    -0.174000000    -1.356000000
C    -4.614000000     1.230000000    -1.464000000
H    -5.151000000     1.860000000    -0.759000000
C    -3.818000000    -0.921000000    -2.283000000
C    -3.111000000    -0.266000000    -3.354000000
H    -2.543000000    -0.853000000    -4.071000000
C    -3.018000000     1.106000000    -3.314000000
O    -2.142000000     1.762000000    -4.168000000
C    -0.858000000     2.332000000    -3.832000000
C     0.295000000     1.961000000    -4.811000000
C     0.186000000     0.782000000    -5.611000000
H    -0.753000000     0.254000000    -5.757000000
C     1.547000000     2.592000000    -4.680000000
H     1.545000000     3.498000000    -4.079000000
O    -1.074000000     3.764000000    -3.648000000
H    -0.590000000     1.927000000    -2.845000000
C    -3.822000000     1.891000000    -2.398000000
C    -3.737000000     3.396000000    -2.480000000
H    -4.633000000     3.970000000    -2.233000000
H    -3.601000000     3.707000000    -3.518000000
C    -2.551000000     3.912000000    -1.734000000
C    -1.321000000     4.094000000    -2.328000000
C    -0.231000000     4.448000000    -1.574000000
H     0.736000000     4.487000000    -2.069000000
C    -0.346000000     4.680000000    -0.195000000
O     0.782000000     4.859000000     0.604000000
C     1.106000000     3.629000000     1.370000000
H     0.575000000     2.742000000     0.993000000
C     2.648000000     3.521000000     1.359000000
C     3.264000000     2.749000000     2.329000000
H     2.739000000     2.394000000     3.213000000
C     3.469000000     3.951000000     0.277000000
H     2.977000000     4.563000000    -0.475000000
C     4.746000000     3.491000000     0.175000000
O     5.450000000     3.827000000    -0.925000000
C     5.375000000     2.748000000     1.151000000
H     6.457000000     2.647000000     1.130000000
C     4.616000000     2.366000000     2.206000000
O     5.264000000     1.638000000     3.240000000
C     4.739000000     1.174000000     4.459000000
C     4.458000000    -0.160000000     4.689000000
H     4.800000000    -0.889000000     3.959000000
C     4.418000000     2.203000000     5.376000000
H     4.627000000     3.238000000     5.119000000
C     3.994000000     1.756000000     6.617000000
H     3.781000000     2.569000000     7.307000000
C     3.744000000     0.432000000     6.905000000
H     3.382000000     0.184000000     7.899000000
C     3.935000000    -0.542000000     5.929000000
O     3.537000000    -1.866000000     6.080000000
C     2.426000000    -2.385000000     5.485000000
C     2.469000000    -3.654000000     4.913000000
H     3.343000000    -4.298000000     4.966000000
C     1.468000000    -4.074000000     4.075000000
O     1.678000000    -5.271000000     3.575000000
C     0.668000000    -6.120000000     3.069000000
C     0.409000000    -6.092000000     1.679000000
H     0.849000000    -5.340000000     1.030000000
C     0.109000000    -7.095000000     3.921000000
H     0.409000000    -7.229000000     4.957000000
C    -0.853000000    -7.975000000     3.367000000
H    -1.410000000    -8.672000000     3.987000000
C    -1.086000000    -7.963000000     1.985000000
H    -1.739000000    -8.732000000     1.580000000
C    -0.404000000    -7.072000000     1.156000000
O    -0.601000000    -7.033000000    -0.215000000
C    -0.776000000    -5.944000000    -0.981000000
C    -0.056000000    -5.845000000    -2.186000000
H     0.605000000    -6.565000000    -2.661000000
C    -0.365000000    -4.779000000    -3.072000000
O     0.168000000    -4.875000000    -4.360000000
C    -0.025000000    -4.073000000    -5.442000000
C     0.784000000    -2.955000000    -5.664000000
H     1.618000000    -2.837000000    -4.977000000
C    -1.220000000    -4.176000000    -6.138000000
H    -1.863000000    -5.008000000    -5.860000000
C    -1.630000000    -3.249000000    -7.100000000
H    -2.600000000    -3.420000000    -7.559000000
C    -0.751000000    -2.129000000    -7.337000000
H    -1.020000000    -1.368000000    -8.065000000
C     0.391000000    -1.972000000    -6.547000000
O     1.280000000    -0.948000000    -6.833000000
C     1.353000000     0.241000000    -6.141000000
C     2.567000000     0.914000000    -6.056000000
H     3.492000000     0.579000000    -6.517000000
C     2.664000000     2.115000000    -5.365000000
O     3.891000000     2.773000000    -5.357000000
C     4.318000000     3.700000000    -4.441000000
C     4.289000000     5.087000000    -4.700000000
H     4.011000000     5.374000000    -5.711000000
C     4.578000000     6.066000000    -3.707000000
H     4.492000000     7.127000000    -3.930000000
C     4.991000000     5.585000000    -2.402000000
H     5.328000000     6.233000000    -1.597000000
C     4.948000000     4.228000000    -2.145000000
C     4.586000000     3.261000000    -3.100000000
H     4.418000000     2.261000000    -2.708000000
C     1.091000000    -1.746000000    -1.419000000
H     1.007000000    -2.241000000    -2.384000000
C     0.229000000    -0.649000000    -1.279000000
H    -0.425000000    -0.421000000    -2.117000000
C     0.360000000     0.116000000    -0.137000000
H    -0.220000000     1.025000000     0.010000000
C     1.185000000    -0.376000000     0.900000000
H     1.165000000     0.143000000     1.855000000
C     2.023000000    -1.481000000     0.749000000
H     2.522000000    -1.896000000     1.622000000
C     2.021000000    -2.173000000    -0.449000000
C     2.992000000    -3.284000000    -0.751000000
O     3.525000000    -3.790000000     0.196000000
O     3.217000000    -3.783000000    -1.808000000
O     2.476000000    -9.116000000    -0.970000000
H     1.749000000    -9.051000000    -1.589000000
H     2.932000000    -8.278000000    -1.047000000
O     7.408000000    -0.336000000     1.006000000
H     7.736000000    -0.685000000     0.178000000
H     6.628000000    -0.859000000     1.194000000
O     4.595000000    -5.025000000     2.197000000
H     4.058000000    -5.809000000     2.311000000
H     4.205000000    -4.574000000     1.448000000
O     5.560000000    -4.812000000    -5.714000000
H     4.658000000    -4.824000000    -5.393000000
H     6.093000000    -4.708000000    -4.925000000
O     4.667000000    -0.543000000    -0.945000000
H     4.329000000    -1.031000000    -0.195000000
H     4.901000000     0.314000000    -0.588000000
O     8.836000000    -3.898000000     0.258000000
H     8.724000000    -4.564000000    -0.421000000
H     8.213000000    -4.145000000     0.941000000
O     4.870000000    -2.072000000    -6.174000000
H     4.605000000    -1.773000000    -5.304000000
H     5.380000000    -2.865000000    -6.011000000
O     5.968000000    -3.976000000    -1.010000000
H     6.128000000    -4.185000000    -0.090000000
H     5.019000000    -3.861000000    -1.068000000
O     5.781000000    -2.389000000     1.165000000
H     5.066000000    -2.784000000     0.665000000
H     5.898000000    -2.972000000     1.916000000
O     5.374000000    -7.427000000     0.587000000
H     5.037000000    -8.018000000     1.260000000
H     6.286000000    -7.694000000     0.470000000
O     7.931000000    -1.708000000    -1.241000000
H     7.085000000    -2.112000000    -1.431000000
H     8.463000000    -2.420000000    -0.885000000
O     4.147000000    -7.311000000    -3.613000000
H     3.983000000    -7.293000000    -2.670000000
H     4.033000000    -6.403000000    -3.893000000
O     7.084000000    -7.476000000    -3.352000000
H     6.969000000    -6.588000000    -3.693000000
H     6.200000000    -7.842000000    -3.336000000
O     3.441000000    -6.513000000    -1.248000000
H     3.309000000    -5.566000000    -1.215000000
H     4.181000000    -6.673000000    -0.663000000
O     3.313000000    -4.784000000    -4.226000000
H     2.395000000    -5.008000000    -4.378000000
H     3.313000000    -4.336000000    -3.380000000
O     7.303000000    -5.411000000     1.985000000
H     6.440000000    -5.184000000     2.331000000
H     7.228000000    -6.333000000     1.740000000
O     4.092000000    -1.869000000    -3.331000000
H     3.673000000    -2.642000000    -2.954000000
H     4.389000000    -1.364000000    -2.574000000
O     6.057000000    -5.895000000     4.760000000
H     5.599000000    -5.722000000     3.938000000
H     5.613000000    -6.660000000     5.126000000
O     7.117000000    -4.639000000    -3.480000000
H     8.040000000    -4.489000000    -3.275000000
H     6.662000000    -4.502000000    -2.649000000
