215
-1445.36209
C    -0.587000000    -4.038000000     3.448000000
H    -1.536000000    -4.405000000     3.066000000
C    -0.374000000    -2.699000000     3.795000000
C     0.904000000    -2.288000000     4.182000000
H     1.032000000    -1.223000000     4.353000000
C    -1.415000000    -1.562000000     3.591000000
O    -2.745000000    -2.111000000     3.737000000
H    -1.261000000    -1.145000000     2.585000000
O    -1.251000000    -0.499000000     4.598000000
C    -1.465000000     0.831000000     4.288000000
C    -0.359000000     1.661000000     4.256000000
H     0.623000000     1.232000000     4.441000000
C    -0.494000000     2.956000000     3.782000000
O     0.697000000     3.612000000     3.677000000
C    -1.705000000     3.396000000     3.233000000
C    -1.681000000     4.776000000     2.526000000
H    -2.663000000     5.254000000     2.550000000
C    -1.210000000     4.805000000     1.109000000
C    -2.193000000     4.746000000     0.124000000
H    -3.217000000     4.572000000     0.443000000
H    -0.941000000     5.410000000     3.020000000
C    -2.808000000     2.527000000     3.312000000
H    -3.740000000     2.811000000     2.831000000
C    -2.731000000     1.263000000     3.883000000
C    -3.992000000     0.393000000     4.016000000
H    -4.829000000     1.091000000     4.087000000
H    -4.097000000    -0.216000000     4.916000000
C    -4.171000000    -0.439000000     2.820000000
C    -4.866000000    -0.002000000     1.685000000
H    -5.109000000     1.054000000     1.608000000
C    -3.504000000    -1.711000000     2.695000000
C    -3.619000000    -2.423000000     1.491000000
H    -3.117000000    -3.378000000     1.356000000
C    -4.242000000    -1.925000000     0.376000000
O    -4.116000000    -2.677000000    -0.748000000
C    -3.231000000    -2.260000000    -1.769000000
C    -2.319000000    -3.364000000    -2.384000000
C    -1.667000000    -3.234000000    -3.665000000
H    -1.996000000    -2.405000000    -4.287000000
C    -2.081000000    -4.529000000    -1.657000000
H    -2.573000000    -4.571000000    -0.688000000
O    -3.884000000    -1.453000000    -2.799000000
H    -2.534000000    -1.533000000    -1.327000000
C    -4.896000000    -0.693000000     0.457000000
C    -5.522000000    -0.005000000    -0.791000000
H    -6.161000000     0.815000000    -0.458000000
H    -6.088000000    -0.702000000    -1.412000000
C    -4.517000000     0.643000000    -1.790000000
C    -4.217000000     1.970000000    -1.667000000
H    -4.697000000     2.499000000    -0.848000000
C    -3.719000000    -0.103000000    -2.636000000
C    -2.762000000     0.496000000    -3.421000000
H    -2.194000000    -0.118000000    -4.115000000
C    -2.420000000     1.795000000    -3.194000000
O    -1.342000000     2.282000000    -3.912000000
C    -0.167000000     2.539000000    -3.149000000
C     1.028000000     2.067000000    -4.073000000
C     0.901000000     1.090000000    -5.094000000
H    -0.043000000     0.610000000    -5.340000000
C     2.299000000     2.678000000    -3.926000000
H     2.349000000     3.500000000    -3.217000000
O    -0.193000000     3.972000000    -2.843000000
H    -0.133000000     2.016000000    -2.182000000
C    -3.166000000     2.591000000    -2.358000000
C    -2.978000000     4.086000000    -2.243000000
H    -3.854000000     4.709000000    -2.052000000
H    -2.646000000     4.483000000    -3.205000000
C    -1.903000000     4.466000000    -1.238000000
C    -0.596000000     4.344000000    -1.534000000
C     0.450000000     4.623000000    -0.650000000
H     1.487000000     4.496000000    -0.953000000
C     0.171000000     4.695000000     0.693000000
O     1.223000000     4.712000000     1.639000000
C     1.390000000     3.531000000     2.447000000
H     0.961000000     2.699000000     1.869000000
C     2.891000000     3.178000000     2.491000000
C     3.414000000     2.463000000     3.557000000
H     2.735000000     2.192000000     4.361000000
C     3.664000000     3.418000000     1.365000000
H     3.165000000     3.806000000     0.481000000
C     5.001000000     3.055000000     1.339000000
O     5.744000000     3.094000000     0.166000000
C     5.547000000     2.322000000     2.401000000
H     6.597000000     2.097000000     2.233000000
C     4.743000000     1.913000000     3.495000000
O     5.361000000     1.295000000     4.496000000
C     4.682000000     0.331000000     5.266000000
C     4.265000000    -0.845000000     4.648000000
H     4.476000000    -0.988000000     3.591000000
C     4.463000000     0.606000000     6.590000000
H     4.829000000     1.566000000     6.944000000
C     3.819000000    -0.405000000     7.340000000
H     3.647000000    -0.195000000     8.392000000
C     3.367000000    -1.604000000     6.804000000
H     2.788000000    -2.328000000     7.371000000
C     3.508000000    -1.761000000     5.364000000
O     3.180000000    -2.856000000     4.705000000
C     1.879000000    -3.220000000     4.349000000
C     1.626000000    -4.577000000     4.108000000
H     2.452000000    -5.281000000     4.165000000
C     0.362000000    -4.989000000     3.621000000
O     0.210000000    -6.248000000     3.343000000
C    -0.546000000    -6.671000000     2.342000000
C    -0.205000000    -6.463000000     1.030000000
H     0.690000000    -5.953000000     0.685000000
C    -1.670000000    -7.460000000     2.593000000
H    -2.004000000    -7.713000000     3.596000000
C    -2.565000000    -7.850000000     1.612000000
H    -3.509000000    -8.362000000     1.780000000
C    -2.221000000    -7.476000000     0.241000000
H    -2.940000000    -7.719000000    -0.537000000
C    -1.041000000    -6.802000000    -0.008000000
O    -0.690000000    -6.500000000    -1.290000000
C    -1.198000000    -5.498000000    -2.083000000
C    -0.543000000    -5.257000000    -3.308000000
H     0.103000000    -6.100000000    -3.540000000
C    -0.813000000    -4.221000000    -4.145000000
O    -0.389000000    -4.265000000    -5.433000000
C    -0.247000000    -3.130000000    -6.251000000
C     0.878000000    -2.291000000    -6.072000000
H     1.667000000    -2.469000000    -5.346000000
C    -1.251000000    -2.794000000    -7.231000000
H    -2.159000000    -3.375000000    -7.373000000
C    -1.056000000    -1.722000000    -8.068000000
H    -1.807000000    -1.419000000    -8.795000000
C     0.113000000    -0.993000000    -7.965000000
H     0.319000000    -0.101000000    -8.551000000
C     1.021000000    -1.186000000    -6.877000000
O     2.082000000    -0.324000000    -6.734000000
C     2.059000000     0.670000000    -5.815000000
C     3.298000000     1.260000000    -5.572000000
H     4.123000000     0.845000000    -6.145000000
C     3.359000000     2.352000000    -4.715000000
O     4.568000000     2.974000000    -4.442000000
C     4.993000000     3.697000000    -3.330000000
C     5.101000000     5.069000000    -3.349000000
H     4.885000000     5.593000000    -4.277000000
C     5.460000000     5.852000000    -2.249000000
H     5.593000000     6.929000000    -2.313000000
C     5.610000000     5.148000000    -1.066000000
H     5.852000000     5.748000000    -0.192000000
C     5.426000000     3.793000000    -0.957000000
C     5.227000000     3.046000000    -2.123000000
H     5.090000000     1.969000000    -2.068000000
C     1.005000000    -2.075000000    -1.649000000
H     1.038000000    -2.573000000    -2.615000000
C     0.519000000    -0.767000000    -1.572000000
H     0.118000000    -0.257000000    -2.444000000
C     0.377000000    -0.109000000    -0.386000000
H    -0.115000000     0.855000000    -0.258000000
C     0.879000000    -0.678000000     0.761000000
H     0.659000000    -0.303000000     1.758000000
C     1.384000000    -1.970000000     0.685000000
H     1.794000000    -2.450000000     1.570000000
C     1.385000000    -2.739000000    -0.494000000
C     2.221000000    -4.032000000    -0.468000000
O     2.709000000    -4.471000000     0.565000000
O     2.488000000    -4.628000000    -1.502000000
O     0.271000000   -10.144000000    -0.419000000
H    -0.531000000   -10.280000000    -0.923000000
H     0.296000000    -9.201000000    -0.257000000
O     4.176000000    -0.693000000     0.106000000
H     3.453000000    -0.305000000     0.599000000
H     4.291000000    -1.561000000     0.492000000
O     3.988000000    -6.948000000     1.437000000
H     3.407000000    -7.298000000     2.112000000
H     3.678000000    -6.053000000     1.296000000
O     5.331000000    -4.783000000    -5.684000000
H     4.422000000    -5.038000000    -5.837000000
H     5.281000000    -4.112000000    -5.003000000
O     6.299000000    -7.178000000     0.303000000
H     5.425000000    -7.486000000     0.543000000
H     6.200000000    -6.231000000     0.205000000
O     3.481000000    -1.178000000    -3.187000000
H     2.652000000    -0.801000000    -3.480000000
H     3.740000000    -0.637000000    -2.441000000
O     2.587000000    -8.750000000    -3.346000000
H     2.565000000    -8.530000000    -2.415000000
H     3.519000000    -8.811000000    -3.556000000
O     2.671000000    -7.930000000     3.790000000
H     1.771000000    -7.714000000     3.546000000
H     2.808000000    -7.480000000     4.624000000
O     5.178000000    -4.635000000    -0.491000000
H     5.511000000    -4.265000000     0.326000000
H     4.231000000    -4.695000000    -0.359000000
O     4.674000000    -3.060000000     1.901000000
H     3.870000000    -3.538000000     1.703000000
H     5.043000000    -3.515000000     2.658000000
O     2.718000000    -5.436000000    -6.594000000
H     2.399000000    -5.506000000    -5.695000000
H     1.963000000    -5.666000000    -7.135000000
O     6.393000000    -0.792000000    -1.228000000
H     5.530000000    -0.788000000    -0.813000000
H     7.009000000    -0.697000000    -0.502000000
O     5.859000000    -5.973000000    -2.661000000
H     5.858000000    -5.139000000    -3.130000000
H     5.814000000    -5.729000000    -1.737000000
O     2.308000000    -7.231000000    -1.020000000
H     2.262000000    -6.308000000    -1.271000000
H     2.846000000    -7.238000000    -0.229000000
O     2.894000000    -6.106000000    -3.908000000
H     2.662000000    -5.403000000    -3.302000000
H     2.721000000    -6.911000000    -3.419000000
O     4.730000000    -3.405000000    -3.254000000
H     4.342000000    -4.108000000    -2.733000000
H     4.277000000    -2.613000000    -2.963000000
O     8.417000000    -4.125000000     0.058000000
H     9.262000000    -3.925000000    -0.344000000
H     7.776000000    -3.946000000    -0.629000000
O     5.545000000    -5.391000000     3.173000000
H     5.235000000    -6.184000000     2.736000000
H     5.426000000    -5.570000000     4.106000000
O     7.372000000    -2.822000000    -2.651000000
H     7.232000000    -2.073000000    -2.073000000
H     6.512000000    -2.994000000    -3.034000000
