215
-1456.54529
C    -0.620000000    -2.747000000     4.197000000
H    -1.303000000    -3.309000000     3.566000000
C    -0.897000000    -1.422000000     4.501000000
C    -0.056000000    -0.798000000     5.438000000
H    -0.271000000     0.255000000     5.602000000
C    -1.906000000    -0.631000000     3.735000000
O    -3.036000000    -1.472000000     3.336000000
H    -1.492000000    -0.210000000     2.808000000
O    -2.489000000     0.461000000     4.500000000
C    -2.553000000     1.611000000     3.772000000
C    -1.394000000     2.370000000     3.762000000
H    -0.517000000     2.102000000     4.346000000
C    -1.346000000     3.528000000     2.941000000
O    -0.163000000     4.232000000     2.865000000
C    -2.434000000     3.946000000     2.142000000
C    -2.412000000     5.107000000     1.177000000
H    -3.418000000     5.504000000     1.029000000
C    -1.759000000     4.673000000    -0.133000000
C    -2.645000000     4.172000000    -1.161000000
H    -3.714000000     4.173000000    -0.964000000
H    -1.849000000     5.926000000     1.630000000
C    -3.526000000     3.088000000     2.073000000
H    -4.364000000     3.422000000     1.466000000
C    -3.635000000     1.944000000     2.920000000
C    -4.739000000     0.967000000     2.839000000
H    -5.600000000     1.555000000     2.515000000
H    -4.947000000     0.597000000     3.845000000
C    -4.488000000    -0.147000000     1.793000000
C    -5.181000000    -0.124000000     0.556000000
H    -5.831000000     0.725000000     0.359000000
C    -3.734000000    -1.285000000     2.148000000
C    -3.612000000    -2.311000000     1.212000000
H    -2.995000000    -3.198000000     1.333000000
C    -4.138000000    -2.169000000    -0.078000000
O    -3.863000000    -3.162000000    -1.048000000
C    -2.878000000    -2.703000000    -1.967000000
C    -1.755000000    -3.653000000    -2.115000000
C    -1.366000000    -4.222000000    -3.338000000
H    -1.932000000    -4.031000000    -4.246000000
C    -1.032000000    -3.986000000    -0.939000000
H    -1.277000000    -3.552000000     0.027000000
O    -3.454000000    -2.390000000    -3.230000000
H    -2.382000000    -1.809000000    -1.560000000
C    -4.936000000    -1.038000000    -0.469000000
C    -5.563000000    -0.857000000    -1.768000000
H    -6.367000000    -0.121000000    -1.829000000
H    -5.959000000    -1.758000000    -2.240000000
C    -4.447000000    -0.212000000    -2.631000000
C    -4.305000000     1.195000000    -2.681000000
H    -4.924000000     1.933000000    -2.178000000
C    -3.489000000    -1.025000000    -3.315000000
C    -2.426000000    -0.486000000    -4.033000000
H    -1.724000000    -1.134000000    -4.551000000
C    -2.324000000     0.918000000    -4.008000000
O    -1.201000000     1.451000000    -4.557000000
C    -0.122000000     1.860000000    -3.705000000
C     1.151000000     1.182000000    -4.157000000
C     1.110000000     0.108000000    -5.131000000
H     0.228000000    -0.083000000    -5.737000000
C     2.348000000     1.379000000    -3.492000000
H     2.399000000     2.200000000    -2.782000000
O    -0.036000000     3.283000000    -3.653000000
H    -0.437000000     1.543000000    -2.701000000
C    -3.230000000     1.768000000    -3.400000000
C    -3.040000000     3.314000000    -3.431000000
H    -4.013000000     3.695000000    -3.114000000
H    -2.638000000     3.585000000    -4.409000000
C    -2.083000000     3.678000000    -2.327000000
C    -0.714000000     3.802000000    -2.585000000
C     0.146000000     4.206000000    -1.539000000
H     1.231000000     4.185000000    -1.597000000
C    -0.397000000     4.675000000    -0.339000000
O     0.505000000     4.904000000     0.682000000
C     0.708000000     3.933000000     1.718000000
H     0.353000000     3.005000000     1.248000000
C     2.204000000     3.772000000     2.050000000
C     2.559000000     3.340000000     3.348000000
H     1.818000000     3.128000000     4.114000000
C     3.240000000     3.959000000     1.120000000
H     2.959000000     4.339000000     0.141000000
C     4.617000000     3.779000000     1.445000000
O     5.682000000     3.916000000     0.596000000
C     4.899000000     3.407000000     2.756000000
H     5.931000000     3.315000000     3.085000000
C     3.874000000     3.137000000     3.727000000
O     4.204000000     2.672000000     4.962000000
C     3.337000000     2.232000000     5.938000000
C     3.051000000     0.848000000     6.050000000
H     3.585000000     0.082000000     5.495000000
C     2.578000000     3.151000000     6.735000000
H     2.830000000     4.172000000     6.462000000
C     1.611000000     2.749000000     7.624000000
H     0.951000000     3.480000000     8.082000000
C     1.352000000     1.388000000     7.697000000
H     0.643000000     0.957000000     8.399000000
C     2.041000000     0.408000000     6.964000000
O     1.740000000    -0.906000000     7.071000000
C     0.958000000    -1.529000000     6.091000000
C     1.140000000    -2.860000000     5.781000000
H     1.963000000    -3.418000000     6.222000000
C     0.325000000    -3.480000000     4.862000000
O     0.542000000    -4.862000000     4.633000000
C     0.529000000    -5.558000000     3.502000000
C     0.654000000    -4.964000000     2.223000000
H     0.895000000    -3.905000000     2.261000000
C     0.237000000    -6.942000000     3.578000000
H     0.034000000    -7.442000000     4.522000000
C     0.235000000    -7.741000000     2.370000000
H     0.099000000    -8.814000000     2.477000000
C     0.402000000    -7.140000000     1.100000000
H     0.418000000    -7.735000000     0.191000000
C     0.691000000    -5.787000000     1.084000000
O     1.048000000    -5.026000000    -0.045000000
C     0.158000000    -4.791000000    -1.079000000
C     0.455000000    -5.463000000    -2.252000000
H     1.292000000    -6.132000000    -2.434000000
C    -0.256000000    -5.100000000    -3.366000000
O     0.231000000    -5.548000000    -4.584000000
C     0.615000000    -4.687000000    -5.601000000
C     1.295000000    -3.436000000    -5.442000000
H     1.706000000    -3.082000000    -4.500000000
C     0.269000000    -5.041000000    -6.902000000
H    -0.413000000    -5.867000000    -7.090000000
C     0.797000000    -4.367000000    -7.997000000
H     0.640000000    -4.685000000    -9.025000000
C     1.439000000    -3.104000000    -7.821000000
H     1.734000000    -2.589000000    -8.731000000
C     1.652000000    -2.662000000    -6.586000000
O     2.396000000    -1.549000000    -6.351000000
C     2.282000000    -0.606000000    -5.324000000
C     3.457000000    -0.329000000    -4.697000000
H     4.370000000    -0.889000000    -4.881000000
C     3.484000000     0.610000000    -3.709000000
O     4.502000000     0.733000000    -2.783000000
C     5.105000000     1.935000000    -2.487000000
C     5.867000000     2.704000000    -3.379000000
H     5.797000000     2.417000000    -4.425000000
C     6.640000000     3.822000000    -2.993000000
H     7.159000000     4.352000000    -3.788000000
C     6.467000000     4.270000000    -1.659000000
H     6.779000000     5.271000000    -1.373000000
C     5.711000000     3.537000000    -0.735000000
C     5.159000000     2.295000000    -1.140000000
H     4.511000000     1.716000000    -0.486000000
C     1.735000000    -1.114000000    -0.605000000
H     2.095000000    -1.471000000    -1.566000000
C     0.477000000    -0.596000000    -0.512000000
H    -0.250000000    -0.646000000    -1.319000000
C     0.098000000     0.146000000     0.577000000
H    -0.921000000     0.400000000     0.685000000
C     0.869000000     0.291000000     1.664000000
H     0.560000000     0.734000000     2.607000000
C     2.185000000    -0.170000000     1.628000000
H     2.867000000    -0.088000000     2.470000000
C     2.635000000    -0.848000000     0.452000000
C     4.023000000    -1.402000000     0.439000000
O     4.655000000    -1.437000000     1.464000000
O     4.501000000    -1.998000000    -0.561000000
O     6.682000000    -4.915000000     1.038000000
H     5.970000000    -4.845000000     0.402000000
H     6.925000000    -4.009000000     1.226000000
O     3.633000000    -6.546000000     3.929000000
H     3.436000000    -7.152000000     3.214000000
H     3.563000000    -5.678000000     3.532000000
O     7.112000000    -0.479000000     1.204000000
H     6.332000000    -1.023000000     1.311000000
H     6.805000000     0.414000000     1.364000000
O     5.425000000    -5.068000000     5.673000000
H     5.920000000    -4.590000000     5.008000000
H     4.809000000    -5.604000000     5.174000000
O     9.508000000     0.528000000     1.523000000
H     9.144000000     1.196000000     0.943000000
H     8.896000000    -0.205000000     1.458000000
O     4.813000000    -3.494000000    -6.143000000
H     5.671000000    -3.755000000    -5.806000000
H     4.292000000    -3.320000000    -5.360000000
O     7.581000000    -3.123000000    -4.765000000
H     8.443000000    -3.232000000    -5.166000000
H     7.582000000    -3.731000000    -4.025000000
O     7.343000000    -0.359000000    -4.250000000
H     7.417000000    -1.268000000    -4.539000000
H     6.837000000    -0.406000000    -3.439000000
O     3.540000000    -3.662000000     3.053000000
H     3.817000000    -2.998000000     3.684000000
H     3.550000000    -3.209000000     2.210000000
O     6.277000000    -7.408000000     1.689000000
H     6.399000000    -6.495000000     1.428000000
H     5.362000000    -7.457000000     1.966000000
O     9.598000000    -0.581000000    -1.909000000
H     8.955000000    -0.858000000    -2.561000000
H     9.161000000     0.118000000    -1.423000000
O     7.465000000    -4.871000000     3.932000000
H     8.122000000    -4.203000000     4.133000000
H     7.147000000    -4.639000000     3.060000000
O     8.557000000     2.087000000    -0.594000000
H     8.461000000     2.509000000    -1.448000000
H     8.463000000     2.800000000     0.038000000
O     3.495000000    -7.351000000    -1.470000000
H     3.746000000    -6.472000000    -1.185000000
H     4.268000000    -7.685000000    -1.925000000
O     6.784000000     1.250000000     4.893000000
H     6.689000000     0.480000000     5.454000000
H     6.160000000     1.884000000     5.247000000
O     6.763000000    -1.211000000    -1.593000000
H     5.870000000    -1.511000000    -1.424000000
H     6.983000000    -0.675000000    -0.832000000
O     5.437000000    -1.507000000     4.003000000
H     6.118000000    -0.837000000     3.955000000
H     5.000000000    -1.467000000     3.152000000
O     4.005000000    -4.845000000    -0.312000000
H     4.166000000    -3.940000000    -0.578000000
H     3.052000000    -4.910000000    -0.244000000
O     3.992000000    -3.416000000    -2.788000000
H     4.550000000    -4.194000000    -2.783000000
H     4.240000000    -2.939000000    -1.995000000
