215
-1441.13903
C    -0.067000000    -2.430000000     4.016000000
H    -0.745000000    -2.859000000     3.283000000
C    -0.379000000    -1.145000000     4.455000000
C     0.532000000    -0.340000000     5.196000000
H     0.434000000     0.683000000     5.551000000
C    -1.675000000    -0.479000000     3.888000000
O    -2.694000000    -1.512000000     3.729000000
H    -1.387000000    -0.245000000     2.852000000
O    -2.117000000     0.706000000     4.522000000
C    -2.429000000     1.759000000     3.705000000
C    -1.442000000     2.682000000     3.521000000
H    -0.524000000     2.758000000     4.098000000
C    -1.661000000     3.736000000     2.584000000
O    -0.619000000     4.607000000     2.344000000
C    -2.788000000     3.728000000     1.726000000
C    -3.133000000     4.749000000     0.629000000
H    -4.217000000     4.784000000     0.495000000
C    -2.425000000     4.298000000    -0.646000000
C    -3.113000000     3.457000000    -1.543000000
H    -4.126000000     3.109000000    -1.358000000
H    -2.755000000     5.728000000     0.931000000
C    -3.826000000     2.764000000     1.975000000
H    -4.583000000     2.638000000     1.206000000
C    -3.584000000     1.782000000     2.907000000
C    -4.596000000     0.652000000     3.078000000
H    -5.586000000     1.031000000     2.815000000
H    -4.796000000     0.325000000     4.100000000
C    -4.262000000    -0.514000000     2.218000000
C    -5.065000000    -0.669000000     1.045000000
H    -5.663000000     0.190000000     0.753000000
C    -3.379000000    -1.496000000     2.540000000
C    -3.402000000    -2.673000000     1.854000000
H    -2.782000000    -3.481000000     2.233000000
C    -3.899000000    -2.713000000     0.592000000
O    -3.663000000    -3.778000000    -0.200000000
C    -2.750000000    -3.552000000    -1.350000000
C    -1.655000000    -4.606000000    -1.363000000
C    -0.826000000    -4.860000000    -2.486000000
H    -1.015000000    -4.181000000    -3.313000000
C    -1.413000000    -5.452000000    -0.267000000
H    -2.085000000    -5.303000000     0.574000000
O    -3.386000000    -3.345000000    -2.657000000
H    -2.192000000    -2.677000000    -0.986000000
C    -4.728000000    -1.647000000     0.133000000
C    -5.361000000    -1.614000000    -1.293000000
H    -6.212000000    -0.931000000    -1.337000000
H    -5.760000000    -2.602000000    -1.531000000
C    -4.339000000    -1.216000000    -2.344000000
C    -4.281000000     0.072000000    -2.789000000
H    -5.108000000     0.700000000    -2.469000000
C    -3.350000000    -2.021000000    -2.933000000
C    -2.228000000    -1.525000000    -3.611000000
H    -1.339000000    -2.150000000    -3.633000000
C    -2.154000000    -0.154000000    -3.924000000
O    -1.032000000     0.265000000    -4.461000000
C    -0.091000000     1.000000000    -3.699000000
C     1.398000000     0.681000000    -4.005000000
C     1.775000000    -0.495000000    -4.608000000
H     1.072000000    -1.233000000    -4.986000000
C     2.382000000     1.453000000    -3.407000000
H     2.189000000     2.300000000    -2.753000000
O    -0.363000000     2.444000000    -3.850000000
H    -0.279000000     0.855000000    -2.625000000
C    -3.190000000     0.607000000    -3.444000000
C    -3.231000000     2.067000000    -3.708000000
H    -4.268000000     2.391000000    -3.819000000
H    -2.818000000     2.315000000    -4.688000000
C    -2.456000000     2.899000000    -2.650000000
C    -1.083000000     3.109000000    -2.813000000
C    -0.355000000     3.848000000    -1.925000000
H     0.708000000     3.881000000    -2.147000000
C    -1.039000000     4.494000000    -0.877000000
O    -0.355000000     5.230000000    -0.023000000
C     0.209000000     4.433000000     1.117000000
H     0.312000000     3.389000000     0.786000000
C     1.601000000     4.822000000     1.404000000
C     2.199000000     4.283000000     2.520000000
H     1.682000000     3.673000000     3.256000000
C     2.311000000     5.507000000     0.384000000
H     1.826000000     5.824000000    -0.536000000
C     3.734000000     5.602000000     0.481000000
O     4.501000000     6.068000000    -0.625000000
C     4.349000000     5.037000000     1.544000000
H     5.423000000     5.133000000     1.684000000
C     3.623000000     4.331000000     2.557000000
O     4.290000000     3.586000000     3.525000000
C     3.709000000     3.084000000     4.697000000
C     3.523000000     1.742000000     4.763000000
H     3.869000000     1.221000000     3.873000000
C     3.384000000     3.935000000     5.740000000
H     3.557000000     5.005000000     5.662000000
C     2.650000000     3.381000000     6.807000000
H     2.394000000     4.048000000     7.627000000
C     2.512000000     2.007000000     6.884000000
H     2.077000000     1.551000000     7.770000000
C     2.948000000     1.186000000     5.896000000
O     2.807000000    -0.193000000     5.979000000
C     1.751000000    -0.922000000     5.467000000
C     2.129000000    -2.190000000     5.003000000
H     3.135000000    -2.574000000     5.154000000
C     1.252000000    -2.953000000     4.342000000
O     1.716000000    -4.102000000     3.826000000
C     0.884000000    -5.187000000     3.546000000
C     0.725000000    -5.657000000     2.229000000
H     1.262000000    -5.150000000     1.432000000
C     0.188000000    -5.758000000     4.611000000
H     0.325000000    -5.284000000     5.579000000
C    -0.588000000    -6.905000000     4.433000000
H    -1.143000000    -7.376000000     5.241000000
C    -0.720000000    -7.368000000     3.155000000
H    -1.363000000    -8.237000000     3.042000000
C    -0.158000000    -6.698000000     2.035000000
O    -0.334000000    -7.305000000     0.800000000
C    -0.443000000    -6.496000000    -0.269000000
C     0.318000000    -6.663000000    -1.402000000
H     1.057000000    -7.456000000    -1.484000000
C     0.163000000    -5.827000000    -2.467000000
O     0.938000000    -6.089000000    -3.562000000
C     1.307000000    -5.187000000    -4.570000000
C     2.069000000    -3.991000000    -4.344000000
H     2.276000000    -3.504000000    -3.394000000
C     0.937000000    -5.561000000    -5.834000000
H     0.317000000    -6.449000000    -5.925000000
C     1.376000000    -4.789000000    -6.910000000
H     1.172000000    -5.115000000    -7.926000000
C     2.231000000    -3.709000000    -6.693000000
H     2.681000000    -3.137000000    -7.501000000
C     2.517000000    -3.251000000    -5.401000000
O     3.382000000    -2.079000000    -5.271000000
C     3.061000000    -0.875000000    -4.704000000
C     4.051000000    -0.007000000    -4.352000000
H     5.073000000    -0.358000000    -4.467000000
C     3.679000000     1.237000000    -3.788000000
O     4.721000000     2.004000000    -3.300000000
C     4.568000000     3.419000000    -3.231000000
C     4.627000000     4.209000000    -4.380000000
H     4.769000000     3.666000000    -5.311000000
C     4.744000000     5.564000000    -4.230000000
H     4.858000000     6.114000000    -5.160000000
C     4.625000000     6.169000000    -2.995000000
H     4.609000000     7.255000000    -2.955000000
C     4.518000000     5.442000000    -1.857000000
C     4.532000000     4.060000000    -1.965000000
H     4.316000000     3.517000000    -1.048000000
C     0.552000000    -1.388000000    -0.060000000
H     0.435000000    -2.256000000    -0.704000000
C    -0.321000000    -0.359000000    -0.198000000
H    -1.225000000    -0.616000000    -0.743000000
C    -0.183000000     0.857000000     0.537000000
H    -0.933000000     1.641000000     0.449000000
C     0.825000000     0.906000000     1.456000000
H     0.910000000     1.750000000     2.136000000
C     1.780000000    -0.128000000     1.568000000
H     2.529000000    -0.120000000     2.356000000
C     1.659000000    -1.292000000     0.819000000
C     2.748000000    -2.415000000     0.942000000
O     3.732000000    -2.315000000     1.625000000
O     2.628000000    -3.398000000     0.234000000
O     6.338000000     0.872000000    -0.585000000
H     6.646000000     1.495000000    -1.242000000
H     5.975000000     0.147000000    -1.094000000
O     3.873000000    -7.685000000    -2.282000000
H     4.088000000    -8.531000000    -1.889000000
H     3.600000000    -7.140000000    -1.543000000
O     2.089000000    -9.067000000     3.749000000
H     1.359000000    -9.664000000     3.916000000
H     1.673000000    -8.226000000     3.561000000
O     5.591000000    -0.455000000     1.629000000
H     5.681000000    -0.054000000     0.764000000
H     4.786000000    -0.970000000     1.572000000
O     6.245000000    -2.406000000     4.365000000
H     6.213000000    -3.032000000     5.088000000
H     5.482000000    -2.621000000     3.828000000
O     8.498000000    -5.118000000     2.183000000
H     8.776000000    -4.398000000     1.616000000
H     9.189000000    -5.774000000     2.093000000
O     5.717000000    -1.649000000    -1.892000000
H     5.109000000    -2.341000000    -2.153000000
H     6.109000000    -1.970000000    -1.080000000
O     7.372000000    -2.158000000    -4.110000000
H     6.764000000    -1.775000000    -3.478000000
H     7.230000000    -3.102000000    -4.037000000
O     3.406000000    -6.008000000     5.510000000
H     3.716000000    -5.492000000     4.766000000
H     3.271000000    -5.367000000     6.208000000
O     6.184000000    -3.036000000     0.609000000
H     5.304000000    -2.831000000     0.923000000
H     6.738000000    -2.350000000     0.983000000
O     6.480000000     0.856000000     3.971000000
H     6.143000000     0.587000000     4.826000000
H     6.429000000     0.066000000     3.434000000
O     6.780000000    -5.550000000    -1.082000000
H     7.301000000    -6.284000000    -0.756000000
H     7.139000000    -4.784000000    -0.636000000
O     4.933000000    -8.247000000     1.235000000
H     4.380000000    -8.832000000     1.752000000
H     5.414000000    -7.734000000     1.885000000
O     8.921000000    -0.859000000     0.576000000
H     9.162000000    -0.205000000     1.231000000
H     8.369000000    -0.383000000    -0.045000000
O     4.263000000    -4.894000000     2.632000000
H     4.445000000    -4.133000000     2.082000000
H     3.468000000    -4.661000000     3.110000000
O     3.130000000    -6.116000000     0.016000000
H     3.794000000    -6.202000000     0.700000000
H     2.863000000    -5.198000000     0.055000000
O     6.232000000    -6.642000000     2.900000000
H     6.930000000    -6.007000000     2.739000000
H     5.428000000    -6.123000000     2.887000000
O     4.643000000    -4.073000000    -2.142000000
H     3.773000000    -4.169000000    -1.756000000
H     5.186000000    -4.707000000    -1.672000000
O     4.718000000    -5.882000000    -4.442000000
H     4.184000000    -6.592000000    -4.085000000
H     4.657000000    -5.185000000    -3.790000000
