215
-1444.11260
C     4.278000000    -1.917000000    -2.132000000
H     3.748000000    -2.854000000    -2.280000000
C     4.319000000    -1.285000000    -0.906000000
C     4.937000000    -0.070000000    -0.784000000
H     4.919000000     0.486000000     0.150000000
C     3.620000000    -1.958000000     0.245000000
O     3.583000000    -3.389000000     0.077000000
H     2.573000000    -1.621000000     0.213000000
O     4.107000000    -1.581000000     1.585000000
C     3.356000000    -1.243000000     2.669000000
C     3.240000000     0.066000000     3.019000000
H     3.773000000     0.793000000     2.411000000
C     2.251000000     0.503000000     3.870000000
O     2.160000000     1.838000000     3.974000000
C     1.504000000    -0.407000000     4.580000000
C     0.516000000     0.102000000     5.683000000
H     0.394000000    -0.730000000     6.379000000
C    -0.801000000     0.567000000     5.036000000
C    -1.679000000    -0.420000000     4.700000000
H    -1.333000000    -1.418000000     4.957000000
H     0.907000000     0.930000000     6.280000000
C     1.590000000    -1.760000000     4.251000000
H     0.922000000    -2.460000000     4.746000000
C     2.535000000    -2.185000000     3.296000000
C     2.730000000    -3.618000000     2.952000000
H     2.489000000    -4.241000000     3.816000000
H     3.772000000    -3.883000000     2.757000000
C     1.922000000    -4.011000000     1.714000000
C     0.653000000    -4.598000000     1.962000000
H     0.311000000    -4.643000000     2.993000000
C     2.394000000    -3.963000000     0.374000000
C     1.592000000    -4.460000000    -0.650000000
H     1.976000000    -4.347000000    -1.660000000
C     0.256000000    -4.941000000    -0.331000000
O    -0.560000000    -5.111000000    -1.399000000
C    -1.556000000    -4.060000000    -1.625000000
C    -1.606000000    -3.646000000    -3.126000000
C    -2.767000000    -3.089000000    -3.664000000
H    -3.653000000    -2.991000000    -3.042000000
C    -0.474000000    -3.802000000    -3.921000000
H     0.364000000    -4.389000000    -3.554000000
O    -2.868000000    -4.435000000    -1.057000000
H    -1.240000000    -3.149000000    -1.096000000
C    -0.190000000    -4.968000000     0.942000000
C    -1.614000000    -5.388000000     1.271000000
H    -1.736000000    -5.891000000     2.232000000
H    -1.931000000    -6.094000000     0.501000000
C    -2.537000000    -4.206000000     1.298000000
C    -2.637000000    -3.402000000     2.440000000
H    -2.201000000    -3.627000000     3.410000000
C    -3.170000000    -3.801000000     0.118000000
C    -3.999000000    -2.694000000     0.129000000
H    -4.427000000    -2.318000000    -0.797000000
C    -3.990000000    -1.826000000     1.222000000
O    -4.554000000    -0.555000000     1.002000000
C    -3.783000000     0.651000000     1.223000000
C    -4.099000000     1.731000000     0.212000000
C    -4.042000000     1.418000000    -1.130000000
H    -3.785000000     0.393000000    -1.382000000
C    -4.349000000     3.072000000     0.563000000
H    -4.298000000     3.350000000     1.612000000
O    -4.009000000     1.265000000     2.564000000
H    -2.706000000     0.434000000     1.174000000
C    -3.377000000    -2.203000000     2.447000000
C    -3.687000000    -1.368000000     3.758000000
H    -3.651000000    -2.021000000     4.632000000
H    -4.741000000    -1.088000000     3.704000000
C    -2.775000000    -0.174000000     3.982000000
C    -3.079000000     1.136000000     3.493000000
C    -2.092000000     2.164000000     3.730000000
H    -2.149000000     3.186000000     3.365000000
C    -1.022000000     1.901000000     4.555000000
O     0.023000000     2.789000000     4.441000000
C     1.034000000     2.585000000     3.454000000
H     0.523000000     2.099000000     2.609000000
C     1.518000000     3.939000000     2.860000000
C     2.854000000     4.106000000     2.363000000
H     3.683000000     3.421000000     2.523000000
C     0.545000000     4.828000000     2.424000000
H    -0.454000000     4.601000000     2.789000000
C     0.839000000     5.883000000     1.584000000
O    -0.060000000     6.859000000     1.240000000
C     2.120000000     6.125000000     1.124000000
H     2.372000000     6.998000000     0.526000000
C     3.112000000     5.214000000     1.506000000
O     4.427000000     5.431000000     1.115000000
C     5.332000000     4.421000000     0.798000000
C     5.220000000     3.768000000    -0.419000000
H     4.476000000     4.040000000    -1.164000000
C     6.288000000     4.022000000     1.718000000
H     6.441000000     4.682000000     2.567000000
C     7.154000000     3.000000000     1.368000000
H     8.035000000     2.774000000     1.962000000
C     7.071000000     2.330000000     0.144000000
H     7.748000000     1.527000000    -0.134000000
C     6.073000000     2.678000000    -0.738000000
O     5.742000000     1.956000000    -1.866000000
C     5.343000000     0.670000000    -1.892000000
C     5.235000000     0.089000000    -3.114000000
H     5.555000000     0.643000000    -3.993000000
C     4.712000000    -1.189000000    -3.230000000
O     4.675000000    -1.707000000    -4.524000000
C     3.909000000    -2.788000000    -4.849000000
C     2.576000000    -2.725000000    -5.233000000
H     2.064000000    -1.766000000    -5.218000000
C     4.544000000    -4.023000000    -4.742000000
H     5.552000000    -4.078000000    -4.339000000
C     3.880000000    -5.152000000    -5.110000000
H     4.385000000    -6.111000000    -5.023000000
C     2.584000000    -5.082000000    -5.680000000
H     2.077000000    -5.992000000    -5.991000000
C     1.890000000    -3.891000000    -5.617000000
O     0.578000000    -3.757000000    -6.094000000
C    -0.549000000    -3.589000000    -5.276000000
C    -1.704000000    -2.972000000    -5.818000000
H    -1.740000000    -2.723000000    -6.875000000
C    -2.811000000    -2.724000000    -5.012000000
O    -3.985000000    -2.280000000    -5.490000000
C    -4.720000000    -1.209000000    -4.984000000
C    -4.017000000    -0.123000000    -4.391000000
H    -2.953000000    -0.195000000    -4.178000000
C    -6.070000000    -1.040000000    -5.359000000
H    -6.554000000    -1.863000000    -5.878000000
C    -6.717000000     0.108000000    -4.913000000
H    -7.738000000     0.264000000    -5.254000000
C    -6.071000000     1.126000000    -4.165000000
H    -6.601000000     2.022000000    -3.853000000
C    -4.689000000     1.005000000    -3.940000000
O    -3.863000000     2.046000000    -3.401000000
C    -4.116000000     2.378000000    -2.117000000
C    -4.353000000     3.710000000    -1.765000000
H    -4.434000000     4.493000000    -2.514000000
C    -4.353000000     4.091000000    -0.432000000
O    -4.409000000     5.428000000    -0.109000000
C    -3.555000000     5.916000000     0.869000000
C    -4.034000000     6.488000000     2.063000000
H    -5.071000000     6.473000000     2.389000000
C    -3.165000000     7.196000000     2.934000000
H    -3.609000000     7.637000000     3.823000000
C    -1.861000000     7.348000000     2.639000000
H    -1.137000000     7.748000000     3.344000000
C    -1.386000000     6.751000000     1.494000000
C    -2.192000000     6.006000000     0.594000000
H    -1.804000000     5.591000000    -0.332000000
C     0.629000000    -0.124000000    -2.626000000
H     0.363000000    -0.734000000    -3.486000000
C     0.183000000    -0.398000000    -1.324000000
H    -0.533000000    -1.187000000    -1.110000000
C     0.578000000     0.408000000    -0.254000000
H     0.126000000     0.244000000     0.687000000
C     1.457000000     1.442000000    -0.530000000
H     1.741000000     2.170000000     0.226000000
C     1.909000000     1.686000000    -1.817000000
H     2.764000000     2.343000000    -1.954000000
C     1.434000000     0.973000000    -2.870000000
C     1.790000000     1.410000000    -4.247000000
O     2.896000000     1.843000000    -4.563000000
O     0.904000000     1.179000000    -5.108000000
O    -0.936000000     5.974000000    -6.920000000
H    -1.584000000     6.537000000    -6.499000000
H    -0.329000000     5.741000000    -6.218000000
O     1.370000000     4.672000000    -4.301000000
H     2.020000000     4.001000000    -4.094000000
H     1.823000000     5.269000000    -4.896000000
O     3.401000000     6.239000000    -5.252000000
H     3.857000000     6.292000000    -4.412000000
H     3.221000000     7.150000000    -5.485000000
O     1.294000000     0.037000000   -10.763000000
H     0.507000000    -0.145000000   -11.276000000
H     1.015000000    -0.062000000    -9.853000000
O     1.035000000     0.209000000    -7.991000000
H     0.130000000     0.147000000    -7.683000000
H     1.537000000     0.446000000    -7.211000000
O    -3.366000000     5.706000000    -5.002000000
H    -2.614000000     5.686000000    -4.409000000
H    -3.780000000     6.553000000    -4.834000000
O    -0.968000000     4.558000000    -9.239000000
H    -1.419000000     3.724000000    -9.366000000
H    -1.075000000     4.749000000    -8.307000000
O     5.518000000     5.185000000    -6.631000000
H     5.135000000     4.393000000    -7.008000000
H     4.819000000     5.557000000    -6.094000000
O     6.917000000     0.033000000    -7.783000000
H     7.811000000     0.118000000    -7.451000000
H     6.536000000     0.904000000    -7.673000000
O    -0.377000000     3.267000000    -5.929000000
H    -0.434000000     3.674000000    -5.065000000
H     0.046000000     2.423000000    -5.770000000
O     4.731000000     1.330000000    -6.269000000
H     4.149000000     1.573000000    -5.548000000
H     4.879000000     0.392000000    -6.151000000
O    -3.058000000     3.279000000    -6.522000000
H    -2.125000000     3.412000000    -6.354000000
H    -3.489000000     4.000000000    -6.063000000
O     7.159000000     1.875000000    -5.185000000
H     7.578000000     1.018000000    -5.260000000
H     6.273000000     1.738000000    -5.519000000
O     4.555000000     3.887000000    -3.930000000
H     3.955000000     3.179000000    -4.165000000
H     5.184000000     3.481000000    -3.335000000
O     4.328000000     3.192000000    -8.724000000
H     3.432000000     3.320000000    -9.036000000
H     4.334000000     2.303000000    -8.369000000
O     3.213000000    -3.284000000    -9.180000000
H     2.580000000    -2.869000000    -8.594000000
H     3.955000000    -3.501000000    -8.616000000
O     1.604000000     3.756000000    -8.918000000
H     0.697000000     4.019000000    -9.072000000
H     1.545000000     3.079000000    -8.244000000
O    -1.363000000     0.340000000    -6.669000000
H    -2.196000000     0.762000000    -6.459000000
H    -0.747000000     0.690000000    -6.024000000
O    -0.885000000     6.662000000    -4.108000000
H    -1.111000000     7.372000000    -3.507000000
H    -0.147000000     6.219000000    -3.688000000
