215
-1444.29169
C    -0.491000000    -2.065000000     4.372000000
H    -1.354000000    -2.699000000     4.180000000
C    -0.513000000    -0.683000000     4.260000000
C     0.602000000     0.098000000     4.535000000
H     0.682000000     1.178000000     4.445000000
C    -1.765000000    -0.001000000     3.564000000
O    -2.975000000    -0.805000000     3.738000000
H    -1.669000000     0.256000000     2.499000000
O    -1.950000000     1.273000000     4.206000000
C    -2.151000000     2.291000000     3.346000000
C    -1.100000000     3.120000000     3.118000000
H    -0.155000000     3.194000000     3.650000000
C    -1.238000000     4.103000000     2.121000000
O    -0.187000000     4.910000000     1.837000000
C    -2.414000000     4.123000000     1.342000000
C    -2.461000000     5.001000000     0.057000000
H    -3.473000000     5.208000000    -0.295000000
C    -1.806000000     4.301000000    -1.053000000
C    -2.655000000     3.694000000    -1.970000000
H    -3.722000000     3.602000000    -1.782000000
H    -2.051000000     6.005000000     0.180000000
C    -3.497000000     3.327000000     1.648000000
H    -4.414000000     3.367000000     1.065000000
C    -3.318000000     2.357000000     2.607000000
C    -4.498000000     1.456000000     2.856000000
H    -5.426000000     1.970000000     2.598000000
H    -4.532000000     1.159000000     3.906000000
C    -4.421000000     0.128000000     2.037000000
C    -4.978000000     0.056000000     0.742000000
H    -5.424000000     0.910000000     0.240000000
C    -3.766000000    -1.003000000     2.553000000
C    -3.673000000    -2.174000000     1.854000000
H    -3.176000000    -3.060000000     2.241000000
C    -4.169000000    -2.229000000     0.586000000
O    -3.880000000    -3.391000000    -0.090000000
C    -2.726000000    -3.234000000    -1.037000000
C    -1.818000000    -4.463000000    -1.036000000
C    -1.523000000    -5.079000000    -2.220000000
H    -1.887000000    -4.716000000    -3.178000000
C    -1.155000000    -4.877000000     0.162000000
H    -1.440000000    -4.486000000     1.136000000
O    -3.345000000    -3.021000000    -2.297000000
H    -2.022000000    -2.445000000    -0.730000000
C    -4.860000000    -1.120000000    -0.031000000
C    -5.374000000    -1.117000000    -1.397000000
H    -6.226000000    -0.437000000    -1.461000000
H    -5.762000000    -2.123000000    -1.569000000
C    -4.279000000    -0.748000000    -2.364000000
C    -4.179000000     0.601000000    -2.733000000
H    -4.913000000     1.349000000    -2.443000000
C    -3.410000000    -1.746000000    -2.858000000
C    -2.451000000    -1.377000000    -3.753000000
H    -1.744000000    -2.134000000    -4.084000000
C    -2.249000000    -0.069000000    -4.151000000
O    -1.122000000     0.234000000    -4.903000000
C    -0.175000000     0.891000000    -4.107000000
C     1.248000000     0.286000000    -4.292000000
C     1.370000000    -1.072000000    -4.562000000
H     0.431000000    -1.609000000    -4.667000000
C     2.355000000     1.044000000    -3.855000000
H     2.231000000     2.077000000    -3.538000000
O    -0.165000000     2.346000000    -4.331000000
H    -0.329000000     0.722000000    -3.031000000
C    -3.140000000     0.943000000    -3.639000000
C    -3.061000000     2.385000000    -4.111000000
H    -4.056000000     2.835000000    -4.113000000
H    -2.704000000     2.495000000    -5.137000000
C    -2.163000000     3.136000000    -3.177000000
C    -0.745000000     3.132000000    -3.364000000
C     0.058000000     3.885000000    -2.532000000
H     1.140000000     3.790000000    -2.580000000
C    -0.448000000     4.461000000    -1.358000000
O     0.445000000     5.026000000    -0.477000000
C     0.762000000     4.448000000     0.834000000
H     0.614000000     3.362000000     0.735000000
C     2.173000000     4.515000000     1.249000000
C     2.559000000     4.572000000     2.646000000
H     1.748000000     4.573000000     3.370000000
C     3.208000000     4.356000000     0.315000000
H     2.981000000     4.309000000    -0.747000000
C     4.550000000     4.461000000     0.662000000
O     5.542000000     4.524000000    -0.377000000
C     4.937000000     4.648000000     1.987000000
H     5.985000000     4.718000000     2.269000000
C     3.941000000     4.584000000     2.969000000
O     4.264000000     4.557000000     4.261000000
C     3.558000000     3.686000000     5.093000000
C     3.418000000     2.342000000     4.675000000
H     3.665000000     1.976000000     3.681000000
C     3.180000000     4.090000000     6.399000000
H     3.285000000     5.135000000     6.682000000
C     2.796000000     3.077000000     7.287000000
H     2.470000000     3.388000000     8.276000000
C     2.554000000     1.797000000     6.869000000
H     2.042000000     1.158000000     7.583000000
C     2.905000000     1.409000000     5.588000000
O     2.896000000     0.107000000     5.198000000
C     1.744000000    -0.593000000     4.895000000
C     1.727000000    -1.933000000     5.193000000
H     2.606000000    -2.430000000     5.595000000
C     0.593000000    -2.648000000     5.021000000
O     0.591000000    -4.053000000     5.344000000
C     0.031000000    -5.093000000     4.559000000
C     0.319000000    -5.118000000     3.230000000
H     0.817000000    -4.314000000     2.695000000
C    -0.553000000    -6.162000000     5.177000000
H    -0.726000000    -6.065000000     6.245000000
C    -0.941000000    -7.280000000     4.457000000
H    -1.449000000    -8.092000000     4.970000000
C    -0.613000000    -7.342000000     3.114000000
H    -0.898000000    -8.205000000     2.519000000
C     0.023000000    -6.297000000     2.461000000
O     0.466000000    -6.367000000     1.171000000
C    -0.180000000    -5.865000000     0.052000000
C     0.177000000    -6.311000000    -1.142000000
H     0.988000000    -7.035000000    -1.150000000
C    -0.468000000    -6.021000000    -2.344000000
O    -0.071000000    -6.406000000    -3.599000000
C     0.402000000    -5.556000000    -4.508000000
C     1.354000000    -4.601000000    -4.228000000
H     1.613000000    -4.512000000    -3.177000000
C     0.120000000    -5.901000000    -5.878000000
H    -0.497000000    -6.739000000    -6.192000000
C     0.625000000    -5.076000000    -6.878000000
H     0.494000000    -5.295000000    -7.935000000
C     1.468000000    -4.013000000    -6.517000000
H     1.868000000    -3.349000000    -7.279000000
C     1.822000000    -3.768000000    -5.183000000
O     2.845000000    -2.955000000    -4.903000000
C     2.634000000    -1.619000000    -4.679000000
C     3.707000000    -0.915000000    -4.146000000
H     4.667000000    -1.410000000    -4.025000000
C     3.564000000     0.410000000    -3.805000000
O     4.657000000     1.001000000    -3.335000000
C     4.866000000     2.304000000    -3.096000000
C     4.839000000     3.190000000    -4.185000000
H     4.563000000     2.856000000    -5.182000000
C     5.052000000     4.514000000    -3.980000000
H     5.144000000     5.136000000    -4.866000000
C     5.319000000     4.857000000    -2.636000000
H     5.546000000     5.903000000    -2.444000000
C     5.312000000     4.014000000    -1.539000000
C     5.074000000     2.718000000    -1.782000000
H     5.004000000     1.945000000    -1.020000000
C     1.274000000    -1.136000000    -1.079000000
H     1.645000000    -2.048000000    -1.541000000
C    -0.030000000    -0.756000000    -1.216000000
H    -0.663000000    -1.280000000    -1.927000000
C    -0.507000000     0.339000000    -0.484000000
H    -1.590000000     0.708000000    -0.594000000
C     0.239000000     0.815000000     0.553000000
H    -0.289000000     1.441000000     1.268000000
C     1.568000000     0.565000000     0.663000000
H     2.142000000     0.937000000     1.508000000
C     2.133000000    -0.406000000    -0.195000000
C     3.618000000    -0.665000000    -0.062000000
O     4.273000000    -0.182000000     0.835000000
O     4.133000000    -1.523000000    -0.765000000
O     3.593000000    -7.021000000    -2.402000000
H     3.945000000    -6.932000000    -3.287000000
H     3.378000000    -6.126000000    -2.138000000
O     7.790000000    -3.065000000    -2.256000000
H     8.013000000    -2.180000000    -2.546000000
H     7.138000000    -3.367000000    -2.888000000
O     5.690000000    -2.930000000     0.727000000
H     5.222000000    -3.762000000     0.807000000
H     5.080000000    -2.356000000     0.263000000
O     4.398000000    -1.552000000     3.470000000
H     4.588000000    -0.775000000     3.996000000
H     4.366000000    -1.229000000     2.569000000
O     3.516000000    -4.010000000    -1.479000000
H     3.461000000    -4.451000000    -0.631000000
H     3.881000000    -3.148000000    -1.276000000
O     5.817000000     1.678000000     2.210000000
H     6.701000000     1.479000000     1.901000000
H     5.246000000     1.132000000     1.669000000
O     8.127000000    -2.975000000    -5.199000000
H     7.334000000    -3.431000000    -5.482000000
H     7.818000000    -2.116000000    -4.910000000
O     3.402000000     0.540000000    -7.344000000
H     4.163000000     1.119000000    -7.317000000
H     3.144000000     0.440000000    -6.428000000
O     7.949000000    -0.360000000    -3.995000000
H     7.568000000     0.212000000    -4.661000000
H     7.325000000    -0.331000000    -3.269000000
O     3.665000000    -5.443000000     0.931000000
H     3.124000000    -6.233000000     0.938000000
H     4.342000000    -5.610000000     1.586000000
O     7.837000000    -4.440000000    -0.047000000
H     7.982000000    -4.204000000    -0.964000000
H     7.061000000    -3.940000000     0.208000000
O     8.423000000    -1.706000000     1.304000000
H     7.503000000    -1.967000000     1.335000000
H     8.435000000    -0.939000000     0.731000000
O     9.776000000     1.334000000    -2.585000000
H     9.047000000     0.828000000    -2.943000000
H    10.500000000     0.709000000    -2.536000000
O     5.941000000    -6.388000000     2.589000000
H     6.118000000    -5.531000000     2.976000000
H     6.409000000    -7.005000000     3.152000000
O     6.206000000    -4.164000000     4.153000000
H     5.618000000    -4.046000000     4.899000000
H     6.068000000    -3.386000000     3.613000000
O     6.782000000    -0.429000000    -1.374000000
H     6.128000000    -1.119000000    -1.263000000
H     6.565000000     0.218000000    -0.703000000
O     6.590000000     1.550000000     4.854000000
H     7.129000000     0.775000000     4.696000000
H     6.146000000     1.707000000     4.021000000
O     5.683000000    -4.380000000    -3.513000000
H     5.478000000    -4.738000000    -4.377000000
H     4.830000000    -4.179000000    -3.129000000
O     8.567000000     1.054000000     0.235000000
H     9.199000000     1.465000000     0.825000000
H     8.905000000     1.235000000    -0.642000000
