215
-1454.52695
C     0.245000000    -1.931000000     5.116000000
H    -0.699000000    -2.463000000     5.032000000
C     0.149000000    -0.608000000     4.635000000
C     1.301000000     0.159000000     4.546000000
H     1.250000000     1.153000000     4.109000000
C    -1.115000000    -0.037000000     3.980000000
O    -2.288000000    -0.842000000     4.214000000
H    -0.954000000     0.009000000     2.893000000
O    -1.281000000     1.279000000     4.384000000
C    -1.799000000     2.169000000     3.516000000
C    -1.006000000     3.252000000     3.204000000
H    -0.004000000     3.382000000     3.605000000
C    -1.327000000     4.125000000     2.165000000
O    -0.295000000     4.894000000     1.688000000
C    -2.502000000     3.994000000     1.441000000
C    -2.852000000     4.816000000     0.263000000
H    -3.940000000     4.764000000     0.182000000
C    -2.311000000     4.235000000    -1.069000000
C    -3.135000000     3.406000000    -1.816000000
H    -4.122000000     3.242000000    -1.391000000
H    -2.629000000     5.885000000     0.242000000
C    -3.432000000     3.063000000     1.970000000
H    -4.403000000     2.986000000     1.489000000
C    -3.044000000     2.148000000     2.953000000
C    -4.110000000     1.164000000     3.356000000
H    -5.115000000     1.567000000     3.213000000
H    -3.972000000     1.059000000     4.434000000
C    -4.063000000    -0.207000000     2.674000000
C    -4.868000000    -0.503000000     1.545000000
H    -5.625000000     0.230000000     1.276000000
C    -3.148000000    -1.173000000     3.163000000
C    -2.973000000    -2.374000000     2.445000000
H    -2.292000000    -3.142000000     2.803000000
C    -3.690000000    -2.618000000     1.279000000
O    -3.388000000    -3.736000000     0.634000000
C    -2.617000000    -3.607000000    -0.570000000
C    -1.474000000    -4.591000000    -0.646000000
C    -1.039000000    -5.198000000    -1.862000000
H    -1.691000000    -5.152000000    -2.731000000
C    -0.572000000    -4.747000000     0.452000000
H    -0.803000000    -4.215000000     1.372000000
O    -3.461000000    -3.600000000    -1.786000000
H    -2.215000000    -2.583000000    -0.592000000
C    -4.633000000    -1.691000000     0.859000000
C    -5.393000000    -1.869000000    -0.411000000
H    -6.347000000    -1.342000000    -0.341000000
H    -5.690000000    -2.910000000    -0.559000000
C    -4.524000000    -1.358000000    -1.626000000
C    -4.647000000    -0.092000000    -2.069000000
H    -5.351000000     0.598000000    -1.611000000
C    -3.661000000    -2.273000000    -2.231000000
C    -2.862000000    -1.892000000    -3.367000000
H    -2.254000000    -2.716000000    -3.734000000
C    -2.857000000    -0.569000000    -3.727000000
O    -1.822000000    -0.109000000    -4.549000000
C    -0.695000000     0.558000000    -3.948000000
C     0.675000000     0.077000000    -4.440000000
C     0.829000000    -0.984000000    -5.242000000
H    -0.052000000    -1.559000000    -5.517000000
C     1.832000000     0.744000000    -3.974000000
H     1.717000000     1.669000000    -3.415000000
O    -0.795000000     2.021000000    -4.166000000
H    -0.706000000     0.396000000    -2.860000000
C    -3.683000000     0.374000000    -3.049000000
C    -3.764000000     1.802000000    -3.598000000
H    -4.793000000     2.136000000    -3.454000000
H    -3.609000000     1.884000000    -4.676000000
C    -2.806000000     2.762000000    -2.931000000
C    -1.405000000     2.828000000    -3.252000000
C    -0.520000000     3.588000000    -2.521000000
H     0.525000000     3.602000000    -2.820000000
C    -0.964000000     4.367000000    -1.448000000
O    -0.023000000     4.982000000    -0.631000000
C     0.445000000     4.310000000     0.586000000
H     0.197000000     3.266000000     0.344000000
C     1.942000000     4.522000000     0.658000000
C     2.583000000     4.483000000     1.798000000
H     1.970000000     4.235000000     2.661000000
C     2.654000000     4.806000000    -0.524000000
H     2.104000000     4.818000000    -1.461000000
C     4.042000000     4.979000000    -0.488000000
O     4.787000000     5.158000000    -1.620000000
C     4.643000000     4.966000000     0.770000000
H     5.714000000     5.074000000     0.918000000
C     3.952000000     4.698000000     1.900000000
O     4.593000000     4.722000000     3.141000000
C     4.199000000     3.959000000     4.279000000
C     4.024000000     2.565000000     4.123000000
H     4.058000000     1.962000000     3.220000000
C     4.062000000     4.581000000     5.478000000
H     4.331000000     5.629000000     5.583000000
C     3.803000000     3.841000000     6.604000000
H     3.704000000     4.351000000     7.559000000
C     3.622000000     2.420000000     6.470000000
H     3.304000000     1.740000000     7.256000000
C     3.673000000     1.830000000     5.241000000
O     3.615000000     0.465000000     5.195000000
C     2.509000000    -0.315000000     5.063000000
C     2.650000000    -1.612000000     5.516000000
H     3.628000000    -1.962000000     5.837000000
C     1.479000000    -2.366000000     5.577000000
O     1.529000000    -3.719000000     5.927000000
C     1.217000000    -4.752000000     5.069000000
C     1.606000000    -4.703000000     3.666000000
H     2.216000000    -3.868000000     3.334000000
C     0.561000000    -5.870000000     5.585000000
H     0.246000000    -5.870000000     6.625000000
C     0.108000000    -6.823000000     4.711000000
H    -0.530000000    -7.596000000     5.134000000
C     0.324000000    -6.720000000     3.292000000
H    -0.117000000    -7.405000000     2.572000000
C     1.070000000    -5.637000000     2.788000000
O     1.411000000    -5.694000000     1.446000000
C     0.570000000    -5.584000000     0.334000000
C     0.911000000    -6.140000000    -0.887000000
H     1.787000000    -6.746000000    -1.103000000
C     0.090000000    -5.933000000    -2.009000000
O     0.513000000    -6.392000000    -3.257000000
C     0.394000000    -5.509000000    -4.310000000
C     1.313000000    -4.514000000    -4.501000000
H     2.069000000    -4.257000000    -3.764000000
C    -0.622000000    -5.760000000    -5.238000000
H    -1.353000000    -6.545000000    -5.060000000
C    -0.719000000    -5.016000000    -6.379000000
H    -1.518000000    -5.196000000    -7.092000000
C     0.205000000    -3.975000000    -6.616000000
H     0.272000000    -3.371000000    -7.518000000
C     1.210000000    -3.707000000    -5.687000000
O     2.146000000    -2.752000000    -6.072000000
C     2.092000000    -1.563000000    -5.438000000
C     3.254000000    -0.897000000    -5.074000000
H     4.187000000    -1.244000000    -5.511000000
C     3.138000000     0.277000000    -4.318000000
O     4.202000000     1.150000000    -4.061000000
C     4.038000000     2.471000000    -3.943000000
C     3.625000000     3.250000000    -5.065000000
H     3.395000000     2.922000000    -6.075000000
C     3.541000000     4.640000000    -4.915000000
H     3.189000000     5.231000000    -5.757000000
C     3.916000000     5.279000000    -3.756000000
H     3.921000000     6.366000000    -3.740000000
C     4.452000000     4.539000000    -2.756000000
C     4.569000000     3.177000000    -2.832000000
H     4.873000000     2.584000000    -1.973000000
C     1.568000000    -1.147000000    -0.872000000
H     2.229000000    -1.819000000    -1.412000000
C     0.154000000    -1.116000000    -1.184000000
H    -0.339000000    -1.793000000    -1.876000000
C    -0.660000000    -0.185000000    -0.491000000
H    -1.645000000     0.015000000    -0.922000000
C    -0.098000000     0.695000000     0.333000000
H    -0.755000000     1.407000000     0.826000000
C     1.299000000     0.760000000     0.526000000
H     1.729000000     1.521000000     1.171000000
C     2.158000000    -0.174000000    -0.093000000
C     3.650000000    -0.046000000     0.089000000
O     4.081000000     0.658000000     1.027000000
O     4.367000000    -0.907000000    -0.360000000
O     7.651000000     2.273000000     4.039000000
H     7.996000000     1.434000000     3.734000000
H     7.355000000     2.100000000     4.932000000
O     3.975000000    -3.366000000     1.385000000
H     3.846000000    -2.532000000     0.932000000
H     4.210000000    -3.982000000     0.691000000
O     9.586000000    -3.239000000    -0.356000000
H     9.823000000    -2.312000000    -0.386000000
H     8.928000000    -3.296000000     0.337000000
O     7.122000000    -0.219000000    -0.179000000
H     6.216000000    -0.512000000    -0.272000000
H     7.068000000     0.557000000     0.377000000
O     5.234000000    -2.417000000    -2.688000000
H     4.729000000    -1.855000000    -2.101000000
H     6.096000000    -2.004000000    -2.733000000
O     5.879000000    -0.622000000     2.731000000
H     5.594000000    -1.424000000     3.168000000
H     5.136000000    -0.372000000     2.182000000
O     5.475000000    -3.626000000     3.752000000
H     4.789000000    -3.797000000     3.107000000
H     6.178000000    -4.233000000     3.520000000
O     7.786000000    -2.745000000     1.603000000
H     7.149000000    -2.032000000     1.639000000
H     7.262000000    -3.540000000     1.698000000
O    10.037000000    -0.498000000    -0.423000000
H     9.143000000    -0.363000000    -0.109000000
H    10.458000000     0.356000000    -0.322000000
O     7.987000000     4.109000000     0.322000000
H     8.135000000     4.311000000     1.246000000
H     7.258000000     3.490000000     0.325000000
O     6.518000000     0.170000000     5.778000000
H     6.448000000    -0.779000000     5.886000000
H     5.706000000     0.421000000     5.338000000
O     6.256000000    -0.216000000    -6.183000000
H     5.777000000     0.182000000    -5.457000000
H     7.042000000     0.322000000    -6.276000000
O     8.441000000    -0.322000000     3.233000000
H     8.590000000    -0.772000000     2.401000000
H     7.489000000    -0.275000000     3.313000000
O     6.340000000     2.231000000     1.330000000
H     6.138000000     2.197000000     2.265000000
H     5.632000000     1.739000000     0.915000000
O     7.367000000    -0.619000000    -2.817000000
H     6.932000000     0.144000000    -3.198000000
H     7.361000000    -0.452000000    -1.874000000
O     4.509000000    -4.462000000    -0.970000000
H     4.970000000    -3.692000000    -1.305000000
H     4.315000000    -4.982000000    -1.750000000
O     8.843000000    -2.632000000    -3.962000000
H     8.118000000    -2.122000000    -3.602000000
H     8.760000000    -2.531000000    -4.910000000
O     4.574000000    -4.043000000    -4.798000000
H     4.860000000    -3.298000000    -4.269000000
H     4.198000000    -4.656000000    -4.166000000
O     4.332000000    -6.344000000     2.056000000
H     4.052000000    -6.993000000     2.701000000
H     3.518000000    -6.032000000     1.661000000
