215
-1471.45394
C     1.027000000    -2.234000000     4.521000000
H     0.405000000    -2.994000000     4.055000000
C     0.634000000    -0.839000000     4.664000000
C     1.630000000     0.062000000     5.154000000
H     1.446000000     1.133000000     5.193000000
C    -0.670000000    -0.286000000     4.294000000
O    -1.691000000    -1.292000000     4.585000000
H    -0.608000000    -0.168000000     3.202000000
O    -1.036000000     0.927000000     4.934000000
C    -1.540000000     1.944000000     4.157000000
C    -0.632000000     2.827000000     3.596000000
H     0.398000000     2.723000000     3.928000000
C    -1.080000000     3.717000000     2.606000000
O    -0.064000000     4.426000000     2.016000000
C    -2.397000000     3.736000000     2.122000000
C    -2.752000000     4.724000000     1.068000000
H    -3.838000000     4.791000000     1.165000000
C    -2.499000000     4.210000000    -0.390000000
C    -3.512000000     3.620000000    -1.128000000
H    -4.533000000     3.552000000    -0.761000000
H    -2.392000000     5.753000000     1.132000000
C    -3.311000000     2.786000000     2.611000000
H    -4.343000000     2.758000000     2.269000000
C    -2.849000000     1.849000000     3.629000000
C    -3.782000000     0.711000000     4.047000000
H    -4.810000000     1.080000000     4.062000000
H    -3.466000000     0.423000000     5.052000000
C    -3.555000000    -0.497000000     3.187000000
C    -4.327000000    -0.680000000     2.038000000
H    -4.990000000     0.124000000     1.728000000
C    -2.542000000    -1.475000000     3.514000000
C    -2.341000000    -2.564000000     2.655000000
H    -1.543000000    -3.266000000     2.879000000
C    -3.080000000    -2.651000000     1.469000000
O    -2.749000000    -3.601000000     0.622000000
C    -2.109000000    -3.214000000    -0.622000000
C    -0.926000000    -4.144000000    -0.862000000
C    -0.343000000    -4.265000000    -2.140000000
H    -0.848000000    -3.882000000    -3.023000000
C    -0.363000000    -4.853000000     0.208000000
H    -0.720000000    -4.635000000     1.211000000
O    -3.051000000    -3.282000000    -1.666000000
H    -1.712000000    -2.193000000    -0.514000000
C    -4.105000000    -1.692000000     1.176000000
C    -4.994000000    -1.848000000    -0.046000000
H    -5.969000000    -1.393000000     0.141000000
H    -5.126000000    -2.932000000    -0.028000000
C    -4.389000000    -1.257000000    -1.315000000
C    -4.727000000     0.061000000    -1.654000000
H    -5.273000000     0.700000000    -0.965000000
C    -3.589000000    -2.074000000    -2.096000000
C    -3.064000000    -1.507000000    -3.232000000
H    -2.306000000    -2.072000000    -3.767000000
C    -3.348000000    -0.195000000    -3.584000000
O    -2.530000000     0.408000000    -4.489000000
C    -1.380000000     0.993000000    -3.972000000
C    -0.221000000     0.603000000    -4.835000000
C    -0.251000000    -0.501000000    -5.716000000
H    -1.076000000    -1.203000000    -5.625000000
C     0.938000000     1.285000000    -4.749000000
H     1.021000000     2.108000000    -4.043000000
O    -1.489000000     2.458000000    -4.035000000
H    -1.346000000     0.593000000    -2.948000000
C    -4.208000000     0.660000000    -2.856000000
C    -4.321000000     2.200000000    -3.017000000
H    -5.361000000     2.473000000    -2.823000000
H    -4.188000000     2.386000000    -4.084000000
C    -3.197000000     2.976000000    -2.325000000
C    -1.893000000     3.039000000    -2.816000000
C    -0.915000000     3.788000000    -2.161000000
H     0.070000000     4.004000000    -2.568000000
C    -1.228000000     4.394000000    -0.960000000
O    -0.169000000     4.954000000    -0.276000000
C     0.363000000     3.983000000     0.692000000
H    -0.104000000     3.002000000     0.521000000
C     1.856000000     3.915000000     0.671000000
C     2.677000000     3.904000000     1.824000000
H     2.150000000     3.967000000     2.772000000
C     2.615000000     4.126000000    -0.532000000
H     2.139000000     4.277000000    -1.497000000
C     4.010000000     4.127000000    -0.583000000
O     4.693000000     4.321000000    -1.764000000
C     4.720000000     3.993000000     0.622000000
H     5.802000000     3.887000000     0.611000000
C     4.033000000     3.874000000     1.818000000
O     4.787000000     3.725000000     2.968000000
C     4.313000000     3.420000000     4.219000000
C     4.304000000     2.094000000     4.612000000
H     4.431000000     1.359000000     3.821000000
C     3.954000000     4.391000000     5.255000000
H     3.849000000     5.419000000     4.917000000
C     3.513000000     3.945000000     6.527000000
H     3.402000000     4.766000000     7.231000000
C     3.460000000     2.569000000     6.831000000
H     3.007000000     2.320000000     7.787000000
C     3.829000000     1.704000000     5.872000000
O     3.829000000     0.409000000     6.128000000
C     2.884000000    -0.418000000     5.511000000
C     3.204000000    -1.766000000     5.394000000
H     4.194000000    -2.047000000     5.744000000
C     2.332000000    -2.718000000     4.891000000
O     2.577000000    -4.109000000     4.843000000
C     1.771000000    -5.049000000     4.321000000
C     1.837000000    -5.208000000     2.935000000
H     2.423000000    -4.538000000     2.311000000
C     0.945000000    -5.894000000     5.130000000
H     0.858000000    -5.812000000     6.210000000
C     0.133000000    -6.846000000     4.514000000
H    -0.561000000    -7.407000000     5.135000000
C     0.217000000    -7.024000000     3.130000000
H    -0.399000000    -7.753000000     2.609000000
C     1.042000000    -6.181000000     2.337000000
O     1.364000000    -6.367000000     1.053000000
C     0.801000000    -5.595000000     0.028000000
C     1.431000000    -5.638000000    -1.260000000
H     2.296000000    -6.295000000    -1.293000000
C     0.823000000    -5.053000000    -2.332000000
O     1.518000000    -5.138000000    -3.513000000
C     1.032000000    -4.812000000    -4.786000000
C     1.236000000    -3.498000000    -5.321000000
H     1.907000000    -2.837000000    -4.779000000
C     0.208000000    -5.769000000    -5.434000000
H     0.072000000    -6.801000000    -5.118000000
C    -0.361000000    -5.476000000    -6.709000000
H    -0.943000000    -6.164000000    -7.317000000
C    -0.077000000    -4.194000000    -7.208000000
H    -0.551000000    -4.006000000    -8.168000000
C     0.634000000    -3.200000000    -6.557000000
O     0.832000000    -1.985000000    -7.195000000
C     0.866000000    -0.865000000    -6.526000000
C     2.028000000    -0.114000000    -6.400000000
H     2.911000000    -0.262000000    -7.017000000
C     2.053000000     0.960000000    -5.493000000
O     3.256000000     1.541000000    -5.277000000
C     3.219000000     2.816000000    -4.702000000
C     2.477000000     3.859000000    -5.267000000
H     1.858000000     3.624000000    -6.129000000
C     2.654000000     5.142000000    -4.759000000
H     2.092000000     5.950000000    -5.220000000
C     3.433000000     5.359000000    -3.612000000
H     3.463000000     6.350000000    -3.167000000
C     4.078000000     4.280000000    -3.011000000
C     3.947000000     2.976000000    -3.541000000
H     4.490000000     2.151000000    -3.087000000
C     0.780000000    -0.204000000    -1.392000000
H     0.617000000    -0.708000000    -2.341000000
C    -0.292000000     0.144000000    -0.554000000
H    -1.347000000     0.075000000    -0.804000000
C     0.058000000     0.605000000     0.738000000
H    -0.808000000     0.872000000     1.351000000
C     1.362000000     0.721000000     1.171000000
H     1.530000000     0.877000000     2.234000000
C     2.438000000     0.375000000     0.292000000
H     3.444000000     0.292000000     0.695000000
C     2.163000000    -0.078000000    -1.037000000
C     3.354000000    -0.464000000    -1.939000000
O     4.530000000    -0.479000000    -1.530000000
O     3.124000000    -0.974000000    -3.000000000
O     5.208000000    -2.541000000    -0.053000000
H     5.018000000    -1.724000000    -0.514000000
H     4.896000000    -3.228000000    -0.642000000
O     7.815000000    -2.410000000     0.914000000
H     7.744000000    -3.270000000     0.501000000
H     6.917000000    -2.079000000     0.937000000
O     6.915000000    -1.016000000    -2.877000000
H     6.482000000    -1.083000000    -3.728000000
H     6.199000000    -0.894000000    -2.254000000
O     9.118000000    -2.102000000    -3.905000000
H     8.687000000    -1.589000000    -3.221000000
H     8.575000000    -2.885000000    -3.995000000
O     4.587000000    -3.368000000    -2.695000000
H     4.105000000    -2.542000000    -2.745000000
H     4.012000000    -4.007000000    -3.117000000
O     5.067000000    -3.090000000     2.658000000
H     5.164000000    -3.169000000     1.709000000
H     5.257000000    -2.170000000     2.843000000
O     4.922000000    -6.115000000     0.165000000
H     4.566000000    -5.552000000     0.853000000
H     5.207000000    -6.904000000     0.625000000
O     6.557000000    -0.552000000     2.614000000
H     7.419000000    -0.832000000     2.304000000
H     6.198000000    -0.040000000     1.889000000
O     7.135000000    -3.195000000    -5.816000000
H     6.610000000    -2.524000000    -5.381000000
H     6.509000000    -3.885000000    -6.034000000
O     6.811000000     5.085000000    -3.596000000
H     6.923000000     4.147000000    -3.750000000
H     6.145000000     5.137000000    -2.910000000
O     8.951000000    -0.015000000     0.047000000
H     9.884000000     0.165000000    -0.067000000
H     8.897000000    -0.969000000     0.110000000
O     7.132000000     2.227000000    -5.006000000
H     6.807000000     2.430000000    -5.883000000
H     7.576000000     1.384000000    -5.105000000
O     4.879000000    -6.858000000    -2.394000000
H     4.763000000    -6.310000000    -1.618000000
H     5.241000000    -7.678000000    -2.056000000
O     6.016000000     0.871000000     0.268000000
H     6.549000000     1.571000000    -0.108000000
H     5.360000000     0.683000000    -0.404000000
O     7.344000000     2.050000000    -2.071000000
H     7.091000000     2.061000000    -2.994000000
H     7.862000000     1.252000000    -1.974000000
O     5.196000000    -0.734000000    -4.943000000
H     4.425000000    -0.654000000    -4.382000000
H     5.314000000     0.141000000    -5.313000000
O     7.085000000    -4.947000000    -3.147000000
H     6.611000000    -4.115000000    -3.168000000
H     6.446000000    -5.594000000    -3.446000000
O     5.319000000     2.280000000    -7.284000000
H     4.978000000     2.888000000    -6.628000000
H     4.565000000     2.078000000    -7.838000000
O     8.395000000     2.409000000     1.047000000
H     8.666000000     1.627000000     0.566000000
H     7.717000000     2.098000000     1.647000000
