215
-1478.38562
C     0.952000000    -1.921000000     4.931000000
H     0.230000000    -2.688000000     4.663000000
C     0.593000000    -0.609000000     4.994000000
C     1.586000000     0.301000000     5.415000000
H     1.433000000     1.377000000     5.455000000
C    -0.708000000    -0.168000000     4.432000000
O    -1.808000000    -1.002000000     4.774000000
H    -0.628000000    -0.318000000     3.345000000
O    -0.938000000     1.227000000     4.872000000
C    -1.569000000     2.081000000     4.021000000
C    -0.685000000     2.985000000     3.515000000
H     0.349000000     3.053000000     3.843000000
C    -1.026000000     3.768000000     2.419000000
O    -0.080000000     4.559000000     1.811000000
C    -2.333000000     3.777000000     1.992000000
C    -2.732000000     4.631000000     0.809000000
H    -3.783000000     4.923000000     0.856000000
C    -2.389000000     4.004000000    -0.544000000
C    -3.419000000     3.326000000    -1.143000000
H    -4.316000000     3.131000000    -0.562000000
H    -2.128000000     5.541000000     0.784000000
C    -3.274000000     2.933000000     2.583000000
H    -4.321000000     2.994000000     2.296000000
C    -2.881000000     2.064000000     3.588000000
C    -3.840000000     1.008000000     4.149000000
H    -4.863000000     1.383000000     4.077000000
H    -3.637000000     0.866000000     5.213000000
C    -3.647000000    -0.272000000     3.382000000
C    -4.466000000    -0.437000000     2.262000000
H    -5.122000000     0.378000000     1.965000000
C    -2.704000000    -1.247000000     3.763000000
C    -2.617000000    -2.363000000     2.964000000
H    -2.029000000    -3.249000000     3.190000000
C    -3.319000000    -2.539000000     1.822000000
O    -3.051000000    -3.676000000     1.025000000
C    -2.321000000    -3.366000000    -0.191000000
C    -1.144000000    -4.228000000    -0.446000000
C    -0.600000000    -4.274000000    -1.720000000
H    -0.941000000    -3.639000000    -2.534000000
C    -0.481000000    -4.817000000     0.629000000
H    -0.696000000    -4.661000000     1.683000000
O    -3.193000000    -3.244000000    -1.326000000
H    -1.861000000    -2.371000000    -0.096000000
C    -4.317000000    -1.598000000     1.431000000
C    -5.153000000    -1.796000000     0.213000000
H    -6.121000000    -1.319000000     0.381000000
H    -5.319000000    -2.863000000     0.051000000
C    -4.464000000    -1.113000000    -0.990000000
C    -4.873000000     0.129000000    -1.469000000
H    -5.539000000     0.757000000    -0.882000000
C    -3.619000000    -1.944000000    -1.775000000
C    -3.120000000    -1.439000000    -2.941000000
H    -2.380000000    -1.989000000    -3.516000000
C    -3.511000000    -0.179000000    -3.408000000
O    -2.745000000     0.292000000    -4.499000000
C    -1.573000000     1.089000000    -4.222000000
C    -0.411000000     0.630000000    -5.046000000
C    -0.330000000    -0.642000000    -5.552000000
H    -1.137000000    -1.368000000    -5.498000000
C     0.591000000     1.487000000    -5.319000000
H     0.595000000     2.499000000    -4.921000000
O    -1.924000000     2.520000000    -4.397000000
H    -1.318000000     0.953000000    -3.161000000
C    -4.291000000     0.657000000    -2.657000000
C    -4.487000000     2.124000000    -3.029000000
H    -5.393000000     2.533000000    -2.576000000
H    -4.639000000     2.278000000    -4.099000000
C    -3.330000000     2.932000000    -2.444000000
C    -2.165000000     3.151000000    -3.184000000
C    -1.085000000     3.753000000    -2.566000000
H    -0.109000000     3.791000000    -3.044000000
C    -1.163000000     4.180000000    -1.243000000
O    -0.050000000     4.694000000    -0.629000000
C     0.432000000     4.007000000     0.528000000
H     0.065000000     2.972000000     0.471000000
C     1.979000000     3.778000000     0.447000000
C     2.773000000     3.750000000     1.551000000
H     2.263000000     3.929000000     2.494000000
C     2.478000000     3.317000000    -0.781000000
H     1.889000000     3.374000000    -1.693000000
C     3.820000000     3.043000000    -0.844000000
O     4.355000000     2.708000000    -2.074000000
C     4.604000000     3.135000000     0.264000000
H     5.652000000     2.864000000     0.158000000
C     4.150000000     3.511000000     1.485000000
O     5.027000000     3.522000000     2.474000000
C     4.693000000     3.404000000     3.780000000
C     4.280000000     2.171000000     4.274000000
H     4.106000000     1.255000000     3.715000000
C     4.986000000     4.497000000     4.587000000
H     5.370000000     5.390000000     4.102000000
C     4.674000000     4.411000000     5.940000000
H     4.674000000     5.232000000     6.653000000
C     4.405000000     3.126000000     6.470000000
H     4.217000000     2.896000000     7.515000000
C     4.113000000     2.026000000     5.640000000
O     3.858000000     0.785000000     6.161000000
C     2.913000000    -0.108000000     5.664000000
C     3.216000000    -1.456000000     5.636000000
H     4.246000000    -1.770000000     5.791000000
C     2.261000000    -2.356000000     5.249000000
O     2.664000000    -3.668000000     5.101000000
C     1.914000000    -4.693000000     4.542000000
C     2.008000000    -4.894000000     3.161000000
H     2.765000000    -4.362000000     2.591000000
C     1.230000000    -5.521000000     5.424000000
H     1.141000000    -5.397000000     6.500000000
C     0.522000000    -6.618000000     4.907000000
H    -0.019000000    -7.366000000     5.481000000
C     0.565000000    -6.820000000     3.533000000
H     0.228000000    -7.747000000     3.075000000
C     1.254000000    -5.947000000     2.661000000
O     1.356000000    -6.255000000     1.339000000
C     0.628000000    -5.655000000     0.385000000
C     1.042000000    -5.918000000    -0.959000000
H     1.861000000    -6.595000000    -1.185000000
C     0.382000000    -5.220000000    -1.991000000
O     0.869000000    -5.352000000    -3.256000000
C     0.354000000    -4.937000000    -4.436000000
C     0.898000000    -3.786000000    -5.062000000
H     1.702000000    -3.247000000    -4.567000000
C    -0.586000000    -5.753000000    -5.072000000
H    -1.101000000    -6.559000000    -4.554000000
C    -1.039000000    -5.418000000    -6.346000000
H    -1.869000000    -5.957000000    -6.795000000
C    -0.645000000    -4.239000000    -6.951000000
H    -1.229000000    -3.884000000    -7.796000000
C     0.375000000    -3.465000000    -6.299000000
O     0.875000000    -2.299000000    -6.892000000
C     0.775000000    -1.011000000    -6.324000000
C     1.625000000    -0.045000000    -6.836000000
H     2.443000000    -0.248000000    -7.523000000
C     1.602000000     1.225000000    -6.237000000
O     2.520000000     2.144000000    -6.551000000
C     3.155000000     2.879000000    -5.524000000
C     3.555000000     4.161000000    -5.842000000
H     3.332000000     4.532000000    -6.839000000
C     4.292000000     4.929000000    -4.993000000
H     4.673000000     5.916000000    -5.245000000
C     4.533000000     4.448000000    -3.687000000
H     5.076000000     4.994000000    -2.919000000
C     4.078000000     3.159000000    -3.350000000
C     3.357000000     2.384000000    -4.247000000
H     3.134000000     1.334000000    -4.074000000
C     0.622000000    -0.497000000    -1.468000000
H     0.592000000    -0.914000000    -2.472000000
C    -0.534000000    -0.035000000    -0.913000000
H    -1.455000000    -0.330000000    -1.408000000
C    -0.521000000     0.456000000     0.380000000
H    -1.581000000     0.736000000     0.710000000
C     0.653000000     0.553000000     1.152000000
H     0.807000000     0.974000000     2.142000000
C     1.790000000     0.102000000     0.511000000
H     2.737000000     0.074000000     1.044000000
C     1.801000000    -0.473000000    -0.732000000
C     3.119000000    -0.983000000    -1.250000000
O     4.171000000    -0.664000000    -0.681000000
O     3.150000000    -1.604000000    -2.335000000
O     5.715000000    -3.139000000    -0.308000000
H     5.248000000    -2.519000000    -0.867000000
H     6.155000000    -3.730000000    -0.920000000
O     4.006000000    -2.326000000    -7.974000000
H     3.241000000    -2.631000000    -7.485000000
H     4.717000000    -2.899000000    -7.687000000
O     6.097000000    -0.027000000    -2.516000000
H     5.367000000    -0.183000000    -1.917000000
H     6.478000000    -0.893000000    -2.658000000
O     7.645000000    -2.240000000    -3.883000000
H     7.528000000    -2.825000000    -3.134000000
H     6.939000000    -2.476000000    -4.484000000
O     3.593000000    -4.088000000    -3.191000000
H     2.713000000    -4.324000000    -3.484000000
H     3.508000000    -3.188000000    -2.875000000
O     5.152000000    -3.475000000     2.401000000
H     5.540000000    -3.255000000     1.554000000
H     5.075000000    -2.635000000     2.854000000
O     6.085000000    -5.425000000     3.864000000
H     5.644000000    -6.248000000     3.652000000
H     5.621000000    -4.766000000     3.348000000
O     4.776000000    -5.966000000     0.462000000
H     5.325000000    -6.042000000    -0.318000000
H     4.937000000    -5.078000000     0.783000000
O     8.611000000    -0.380000000     2.134000000
H     9.015000000    -1.248000000     2.170000000
H     7.755000000    -0.531000000     1.734000000
O     6.300000000    -2.794000000    -6.047000000
H     5.423000000    -2.512000000    -5.785000000
H     6.148000000    -3.455000000    -6.721000000
O     7.144000000    -0.301000000    -6.881000000
H     6.816000000    -1.199000000    -6.841000000
H     7.159000000    -0.092000000    -7.815000000
O     8.099000000     1.446000000    -1.018000000
H     7.599000000     0.664000000    -1.248000000
H     8.000000000     2.025000000    -1.773000000
O     6.573000000     1.250000000    -5.021000000
H     6.185000000     0.621000000    -4.412000000
H     6.849000000     0.720000000    -5.769000000
O     7.658000000    -4.236000000    -2.004000000
H     7.431000000    -5.051000000    -2.451000000
H     8.435000000    -4.454000000    -1.488000000
O     5.161000000    -0.228000000     1.897000000
H     4.597000000     0.510000000     2.128000000
H     4.848000000    -0.509000000     1.037000000
O     7.259000000     3.137000000    -3.047000000
H     7.226000000     2.603000000    -3.841000000
H     6.341000000     3.278000000    -2.815000000
O     4.199000000    -1.407000000    -5.002000000
H     3.948000000    -1.247000000    -4.092000000
H     4.752000000    -0.661000000    -5.233000000
O     5.510000000    -6.059000000    -2.455000000
H     4.806000000    -5.464000000    -2.716000000
H     5.092000000    -6.919000000    -2.411000000
O     8.215000000     3.417000000     0.798000000
H     8.276000000     3.143000000     1.713000000
H     8.122000000     2.599000000     0.309000000
