215
-1450.05369
C     0.263000000    -1.744000000     4.916000000
H    -0.574000000    -2.430000000     4.821000000
C     0.184000000    -0.399000000     4.577000000
C     1.286000000     0.430000000     4.714000000
H     1.222000000     1.485000000     4.461000000
C    -1.015000000     0.128000000     3.938000000
O    -2.044000000    -0.596000000     4.337000000
H    -0.958000000     0.020000000     2.845000000
O    -1.200000000     1.491000000     4.312000000
C    -1.743000000     2.347000000     3.316000000
C    -0.887000000     3.256000000     2.800000000
H     0.149000000     3.269000000     3.129000000
C    -1.335000000     4.105000000     1.790000000
O    -0.481000000     4.978000000     1.255000000
C    -2.574000000     3.835000000     1.144000000
C    -3.007000000     4.695000000    -0.018000000
H    -4.068000000     4.915000000     0.123000000
C    -2.573000000     4.104000000    -1.355000000
C    -3.442000000     3.281000000    -2.050000000
H    -4.458000000     3.186000000    -1.675000000
H    -2.662000000     5.730000000     0.040000000
C    -3.377000000     2.845000000     1.676000000
H    -4.327000000     2.634000000     1.190000000
C    -3.037000000     2.213000000     2.860000000
C    -4.006000000     1.272000000     3.503000000
H    -5.068000000     1.509000000     3.404000000
H    -3.794000000     1.242000000     4.573000000
C    -3.906000000    -0.131000000     2.872000000
C    -4.627000000    -0.390000000     1.665000000
H    -5.241000000     0.400000000     1.242000000
C    -2.916000000    -0.975000000     3.366000000
C    -2.783000000    -2.187000000     2.715000000
H    -2.007000000    -2.837000000     3.110000000
C    -3.532000000    -2.456000000     1.584000000
O    -3.106000000    -3.549000000     0.846000000
C    -2.310000000    -3.373000000    -0.338000000
C    -1.181000000    -4.372000000    -0.341000000
C    -0.528000000    -4.649000000    -1.542000000
H    -0.869000000    -4.286000000    -2.508000000
C    -0.661000000    -4.827000000     0.872000000
H    -1.050000000    -4.485000000     1.827000000
O    -3.063000000    -3.401000000    -1.552000000
H    -1.865000000    -2.371000000    -0.251000000
C    -4.490000000    -1.635000000     1.027000000
C    -5.171000000    -1.865000000    -0.345000000
H    -6.160000000    -1.407000000    -0.279000000
H    -5.452000000    -2.919000000    -0.300000000
C    -4.301000000    -1.450000000    -1.571000000
C    -4.565000000    -0.245000000    -2.222000000
H    -5.276000000     0.443000000    -1.773000000
C    -3.353000000    -2.260000000    -2.159000000
C    -2.651000000    -1.950000000    -3.336000000
H    -1.970000000    -2.637000000    -3.830000000
C    -2.883000000    -0.685000000    -3.879000000
O    -1.964000000    -0.226000000    -4.833000000
C    -0.860000000     0.576000000    -4.207000000
C     0.467000000     0.082000000    -4.638000000
C     0.568000000    -1.114000000    -5.368000000
H    -0.266000000    -1.686000000    -5.768000000
C     1.558000000     0.798000000    -4.198000000
H     1.523000000     1.646000000    -3.519000000
O    -1.020000000     1.981000000    -4.495000000
H    -0.815000000     0.480000000    -3.113000000
C    -3.844000000     0.216000000    -3.346000000
C    -3.910000000     1.587000000    -3.912000000
H    -4.956000000     1.839000000    -3.727000000
H    -3.832000000     1.604000000    -5.001000000
C    -2.966000000     2.595000000    -3.223000000
C    -1.629000000     2.760000000    -3.611000000
C    -0.757000000     3.594000000    -2.912000000
H     0.302000000     3.688000000    -3.136000000
C    -1.231000000     4.221000000    -1.784000000
O    -0.292000000     5.011000000    -1.127000000
C     0.199000000     4.541000000     0.131000000
H     0.101000000     3.446000000     0.081000000
C     1.636000000     4.857000000     0.329000000
C     2.167000000     4.845000000     1.640000000
H     1.561000000     4.657000000     2.523000000
C     2.502000000     5.002000000    -0.798000000
H     2.127000000     5.051000000    -1.817000000
C     3.814000000     5.035000000    -0.663000000
O     4.600000000     5.105000000    -1.780000000
C     4.348000000     5.123000000     0.619000000
H     5.426000000     5.239000000     0.691000000
C     3.540000000     4.938000000     1.808000000
O     4.125000000     5.040000000     3.038000000
C     3.977000000     4.219000000     4.130000000
C     3.682000000     2.849000000     4.060000000
H     3.520000000     2.332000000     3.118000000
C     4.008000000     4.869000000     5.317000000
H     4.103000000     5.949000000     5.391000000
C     3.974000000     4.166000000     6.484000000
H     4.134000000     4.619000000     7.459000000
C     3.834000000     2.741000000     6.445000000
H     3.834000000     2.140000000     7.350000000
C     3.639000000     2.140000000     5.232000000
O     3.603000000     0.752000000     5.164000000
C     2.519000000    -0.041000000     5.088000000
C     2.594000000    -1.368000000     5.467000000
H     3.522000000    -1.849000000     5.766000000
C     1.453000000    -2.162000000     5.426000000
O     1.643000000    -3.396000000     5.818000000
C     1.017000000    -4.547000000     5.287000000
C     1.089000000    -4.753000000     3.889000000
H     1.574000000    -3.997000000     3.277000000
C     0.416000000    -5.511000000     6.095000000
H     0.260000000    -5.425000000     7.168000000
C    -0.156000000    -6.650000000     5.516000000
H    -0.680000000    -7.347000000     6.165000000
C    -0.048000000    -6.865000000     4.180000000
H    -0.393000000    -7.783000000     3.712000000
C     0.585000000    -5.965000000     3.366000000
O     0.742000000    -6.394000000     2.052000000
C     0.362000000    -5.785000000     0.872000000
C     0.976000000    -6.115000000    -0.336000000
H     1.824000000    -6.794000000    -0.372000000
C     0.532000000    -5.585000000    -1.520000000
O     1.011000000    -6.053000000    -2.754000000
C     0.775000000    -5.538000000    -4.001000000
C     1.361000000    -4.378000000    -4.383000000
H     1.963000000    -3.781000000    -3.703000000
C     0.103000000    -6.335000000    -4.955000000
H    -0.352000000    -7.298000000    -4.737000000
C    -0.122000000    -5.873000000    -6.228000000
H    -0.739000000    -6.517000000    -6.850000000
C     0.414000000    -4.631000000    -6.598000000
H     0.363000000    -4.293000000    -7.630000000
C     1.235000000    -3.979000000    -5.728000000
O     1.929000000    -2.865000000    -6.189000000
C     1.820000000    -1.632000000    -5.576000000
C     2.956000000    -1.041000000    -4.968000000
H     3.911000000    -1.542000000    -5.101000000
C     2.804000000     0.187000000    -4.337000000
O     3.878000000     0.802000000    -3.851000000
C     4.046000000     2.146000000    -3.964000000
C     3.990000000     2.759000000    -5.231000000
H     3.698000000     2.223000000    -6.131000000
C     4.142000000     4.155000000    -5.336000000
H     4.256000000     4.573000000    -6.333000000
C     4.269000000     4.891000000    -4.131000000
H     4.289000000     5.967000000    -4.281000000
C     4.370000000     4.317000000    -2.856000000
C     4.323000000     2.943000000    -2.824000000
H     4.394000000     2.449000000    -1.858000000
C     1.804000000    -0.992000000    -0.947000000
H     2.416000000    -1.592000000    -1.616000000
C     0.427000000    -0.735000000    -1.272000000
H    -0.022000000    -1.260000000    -2.111000000
C    -0.416000000     0.018000000    -0.455000000
H    -1.432000000     0.174000000    -0.659000000
C     0.196000000     0.703000000     0.604000000
H    -0.457000000     1.376000000     1.155000000
C     1.597000000     0.489000000     1.003000000
H     1.943000000     0.999000000     1.898000000
C     2.353000000    -0.322000000     0.158000000
C     3.843000000    -0.337000000     0.593000000
O     4.252000000     0.306000000     1.519000000
O     4.621000000    -1.024000000    -0.060000000
O     7.591000000     2.102000000     2.640000000
H     7.495000000     2.511000000     3.500000000
H     7.651000000     1.165000000     2.827000000
O     5.741000000    -3.096000000     1.325000000
H     5.393000000    -2.267000000     0.995000000
H     5.271000000    -3.767000000     0.830000000
O     6.740000000     0.194000000    -1.232000000
H     5.965000000    -0.355000000    -1.111000000
H     6.632000000     0.904000000    -0.598000000
O     5.188000000    -2.060000000    -2.524000000
H     5.130000000    -1.253000000    -3.035000000
H     4.832000000    -1.827000000    -1.666000000
O     6.510000000    -0.658000000     2.869000000
H     7.036000000    -0.903000000     2.108000000
H     5.617000000    -0.593000000     2.531000000
O     7.134000000    -4.751000000     4.694000000
H     7.085000000    -5.053000000     3.787000000
H     7.939000000    -4.234000000     4.731000000
O     4.711000000    -3.605000000     4.353000000
H     5.157000000    -2.905000000     3.877000000
H     5.375000000    -4.288000000     4.451000000
O     8.137000000    -4.237000000     1.954000000
H     7.445000000    -3.819000000     1.442000000
H     8.935000000    -4.081000000     1.449000000
O     9.135000000    -0.804000000     1.047000000
H     9.669000000    -0.083000000     0.713000000
H     9.626000000    -1.138000000     1.798000000
O     8.952000000     2.704000000    -1.302000000
H     8.043000000     2.611000000    -1.017000000
H     9.411000000     1.977000000    -0.881000000
O     6.017000000    -0.448000000     5.560000000
H     5.185000000    -0.034000000     5.328000000
H     6.412000000    -0.680000000     4.720000000
O     9.266000000    -1.298000000     3.628000000
H     9.674000000    -2.155000000     3.755000000
H     8.329000000    -1.460000000     3.739000000
O     6.707000000     5.701000000     3.652000000
H     5.852000000     5.329000000     3.434000000
H     6.546000000     6.642000000     3.726000000
O     5.788000000    -6.205000000     0.064000000
H     5.228000000    -5.480000000    -0.212000000
H     5.916000000    -6.724000000    -0.730000000
O     6.069000000     2.275000000     0.474000000
H     6.672000000     2.335000000     1.215000000
H     5.401000000     1.651000000     0.758000000
O     8.233000000    -2.130000000    -1.161000000
H     8.632000000    -1.825000000    -0.346000000
H     7.618000000    -1.437000000    -1.401000000
O     4.240000000    -4.486000000    -1.621000000
H     4.486000000    -3.671000000    -2.058000000
H     4.245000000    -5.142000000    -2.319000000
O     9.958000000    -3.113000000    -2.932000000
H     9.155000000    -2.705000000    -2.607000000
H     9.765000000    -3.327000000    -3.845000000
O     8.800000000     4.065000000     1.231000000
H     9.105000000     3.491000000     0.529000000
H     8.212000000     3.516000000     1.751000000
