215
-1467.00840
C     1.389000000    -3.372000000     3.942000000
H     0.687000000    -4.053000000     3.468000000
C     0.967000000    -2.046000000     4.195000000
C     1.852000000    -1.148000000     4.858000000
H     1.498000000    -0.158000000     5.134000000
C    -0.509000000    -1.660000000     3.864000000
O    -1.351000000    -2.779000000     3.960000000
H    -0.505000000    -1.236000000     2.848000000
O    -0.962000000    -0.571000000     4.770000000
C    -1.675000000     0.417000000     4.237000000
C    -0.947000000     1.603000000     4.034000000
H     0.054000000     1.701000000     4.447000000
C    -1.580000000     2.636000000     3.350000000
O    -0.873000000     3.758000000     3.144000000
C    -2.904000000     2.526000000     2.834000000
C    -3.647000000     3.620000000     2.167000000
H    -4.702000000     3.555000000     2.442000000
C    -3.323000000     3.660000000     0.696000000
C    -4.130000000     2.888000000    -0.170000000
H    -5.097000000     2.546000000     0.191000000
H    -3.380000000     4.613000000     2.536000000
C    -3.564000000     1.293000000     3.042000000
H    -4.550000000     1.227000000     2.590000000
C    -2.937000000     0.232000000     3.638000000
C    -3.739000000    -1.056000000     3.870000000
H    -4.805000000    -0.829000000     3.798000000
H    -3.598000000    -1.450000000     4.879000000
C    -3.331000000    -2.026000000     2.764000000
C    -4.125000000    -2.024000000     1.618000000
H    -4.966000000    -1.352000000     1.472000000
C    -2.214000000    -2.902000000     2.867000000
C    -1.878000000    -3.798000000     1.824000000
H    -1.018000000    -4.462000000     1.807000000
C    -2.633000000    -3.682000000     0.709000000
O    -2.060000000    -4.339000000    -0.396000000
C    -1.592000000    -3.477000000    -1.488000000
C    -0.357000000    -4.116000000    -2.136000000
C    -0.213000000    -4.202000000    -3.504000000
H    -1.058000000    -4.006000000    -4.160000000
C     0.695000000    -4.420000000    -1.215000000
H     0.522000000    -4.171000000    -0.172000000
O    -2.656000000    -3.326000000    -2.462000000
H    -1.298000000    -2.468000000    -1.163000000
C    -3.760000000    -2.833000000     0.578000000
C    -4.666000000    -2.887000000    -0.673000000
H    -5.709000000    -2.737000000    -0.387000000
H    -4.813000000    -3.859000000    -1.149000000
C    -4.283000000    -1.820000000    -1.701000000
C    -4.678000000    -0.493000000    -1.653000000
H    -5.239000000    -0.092000000    -0.813000000
C    -3.299000000    -2.099000000    -2.592000000
C    -2.721000000    -1.208000000    -3.483000000
H    -1.883000000    -1.607000000    -4.048000000
C    -3.207000000     0.017000000    -3.440000000
O    -2.509000000     0.850000000    -4.244000000
C    -1.543000000     1.546000000    -3.460000000
C    -0.145000000     1.639000000    -4.050000000
C     0.358000000     0.582000000    -4.820000000
H    -0.364000000    -0.204000000    -5.031000000
C     0.711000000     2.714000000    -3.838000000
H     0.375000000     3.522000000    -3.193000000
O    -2.062000000     2.840000000    -3.194000000
H    -1.330000000     1.199000000    -2.438000000
C    -4.256000000     0.429000000    -2.596000000
C    -4.732000000     1.924000000    -2.420000000
H    -5.800000000     1.891000000    -2.196000000
H    -4.687000000     2.447000000    -3.378000000
C    -3.789000000     2.707000000    -1.495000000
C    -2.526000000     3.198000000    -1.913000000
C    -1.716000000     3.954000000    -1.037000000
H    -0.713000000     4.113000000    -1.426000000
C    -2.123000000     4.284000000     0.238000000
O    -1.265000000     4.916000000     1.116000000
C    -0.403000000     4.036000000     1.800000000
H    -0.311000000     3.091000000     1.246000000
C     1.035000000     4.609000000     1.930000000
C     1.979000000     4.055000000     2.832000000
H     1.636000000     3.526000000     3.718000000
C     1.531000000     5.504000000     0.988000000
H     0.781000000     5.852000000     0.281000000
C     2.948000000     5.791000000     1.004000000
O     3.475000000     6.445000000    -0.072000000
C     3.851000000     5.347000000     1.999000000
H     4.886000000     5.678000000     2.019000000
C     3.321000000     4.469000000     2.908000000
O     4.185000000     3.989000000     3.802000000
C     3.865000000     3.066000000     4.799000000
C     4.074000000     1.667000000     4.721000000
H     4.555000000     1.247000000     3.842000000
C     3.112000000     3.493000000     5.876000000
H     2.885000000     4.543000000     6.043000000
C     2.779000000     2.644000000     6.939000000
H     2.330000000     3.006000000     7.860000000
C     3.057000000     1.300000000     6.815000000
H     2.865000000     0.684000000     7.691000000
C     3.691000000     0.789000000     5.723000000
O     4.000000000    -0.563000000     5.691000000
C     3.144000000    -1.545000000     5.186000000
C     3.572000000    -2.848000000     4.880000000
H     4.609000000    -3.136000000     5.034000000
C     2.718000000    -3.769000000     4.167000000
O     3.192000000    -5.024000000     3.855000000
C     2.719000000    -5.843000000     2.828000000
C     2.927000000    -5.420000000     1.507000000
H     3.503000000    -4.503000000     1.407000000
C     1.966000000    -7.028000000     3.000000000
H     1.665000000    -7.345000000     3.995000000
C     1.508000000    -7.746000000     1.896000000
H     0.848000000    -8.599000000     2.031000000
C     1.653000000    -7.237000000     0.633000000
H     1.195000000    -7.819000000    -0.162000000
C     2.443000000    -6.103000000     0.410000000
O     2.709000000    -5.500000000    -0.816000000
C     1.774000000    -5.016000000    -1.708000000
C     1.902000000    -5.336000000    -3.056000000
H     2.845000000    -5.735000000    -3.421000000
C     0.922000000    -4.871000000    -3.962000000
O     1.087000000    -5.086000000    -5.298000000
C     1.094000000    -3.987000000    -6.171000000
C     1.781000000    -2.801000000    -5.844000000
H     2.297000000    -2.821000000    -4.887000000
C     0.381000000    -3.975000000    -7.365000000
H    -0.149000000    -4.899000000    -7.584000000
C     0.089000000    -2.773000000    -8.058000000
H    -0.603000000    -2.717000000    -8.895000000
C     0.710000000    -1.641000000    -7.585000000
H     0.509000000    -0.686000000    -8.065000000
C     1.599000000    -1.639000000    -6.532000000
O     2.210000000    -0.460000000    -6.114000000
C     1.666000000     0.545000000    -5.350000000
C     2.491000000     1.649000000    -5.041000000
H     3.526000000     1.682000000    -5.374000000
C     2.038000000     2.721000000    -4.286000000
O     2.975000000     3.678000000    -3.925000000
C     2.601000000     4.848000000    -3.222000000
C     2.004000000     5.908000000    -3.942000000
H     1.841000000     5.824000000    -5.014000000
C     1.980000000     7.185000000    -3.351000000
H     1.757000000     7.994000000    -4.042000000
C     2.553000000     7.425000000    -2.133000000
H     2.675000000     8.390000000    -1.646000000
C     3.002000000     6.318000000    -1.375000000
C     3.206000000     5.086000000    -2.023000000
H     3.663000000     4.267000000    -1.473000000
C     1.613000000     0.042000000    -1.614000000
H     2.116000000    -0.043000000    -2.574000000
C     0.284000000    -0.357000000    -1.513000000
H    -0.251000000    -0.723000000    -2.385000000
C    -0.402000000    -0.099000000    -0.292000000
H    -1.377000000    -0.454000000    -0.075000000
C     0.240000000     0.610000000     0.723000000
H    -0.438000000     0.835000000     1.541000000
C     1.550000000     0.991000000     0.628000000
H     2.042000000     1.529000000     1.434000000
C     2.294000000     0.683000000    -0.543000000
C     3.690000000     1.139000000    -0.720000000
O     4.370000000     1.262000000     0.320000000
O     4.183000000     1.104000000    -1.817000000
O     6.250000000     4.687000000    -1.580000000
H     6.430000000     5.448000000    -2.131000000
H     5.958000000     4.011000000    -2.191000000
O     5.010000000    -1.912000000    -0.906000000
H     5.685000000    -2.287000000    -0.341000000
H     5.189000000    -0.971000000    -0.900000000
O     4.330000000    -0.830000000    -3.661000000
H     4.560000000    -1.497000000    -3.014000000
H     4.160000000    -0.043000000    -3.143000000
O     6.636000000    -1.458000000     3.633000000
H     5.877000000    -1.073000000     3.196000000
H     7.228000000    -1.695000000     2.919000000
O     4.297000000    -0.655000000     2.012000000
H     4.392000000     0.045000000     1.366000000
H     3.358000000    -0.685000000     2.195000000
O     6.192000000    -3.564000000     0.866000000
H     5.355000000    -3.373000000     1.289000000
H     6.200000000    -4.517000000     0.771000000
O     6.982000000     5.359000000     3.018000000
H     6.874000000     4.413000000     2.920000000
H     7.554000000     5.611000000     2.293000000
O     8.972000000     2.077000000     1.240000000
H     8.075000000     2.175000000     0.920000000
H     9.439000000     2.829000000     0.877000000
O     8.189000000    -2.663000000    -1.765000000
H     9.048000000    -2.509000000    -1.371000000
H     7.810000000    -1.790000000    -1.863000000
O     7.290000000    -0.401000000     1.012000000
H     8.229000000    -0.347000000     0.835000000
H     6.882000000     0.069000000     0.285000000
O     7.547000000     1.901000000     5.073000000
H     7.115000000     2.204000000     4.274000000
H     7.726000000     0.975000000     4.912000000
O     5.916000000     2.367000000    -3.336000000
H     5.401000000     1.747000000    -2.820000000
H     5.370000000     2.554000000    -4.100000000
O     5.509000000    -4.376000000    -2.279000000
H     6.320000000    -3.905000000    -2.084000000
H     4.834000000    -3.899000000    -1.796000000
O     8.047000000     5.198000000     0.603000000
H     7.593000000     4.854000000    -0.167000000
H     8.948000000     4.892000000     0.507000000
O     4.979000000    -1.940000000    -5.888000000
H     4.358000000    -1.660000000    -5.215000000
H     4.993000000    -2.894000000    -5.819000000
O     7.436000000    -0.578000000    -5.043000000
H     6.527000000    -0.849000000    -5.170000000
H     7.555000000    -0.575000000    -4.093000000
O     6.204000000     1.970000000     2.361000000
H     6.677000000     1.180000000     2.101000000
H     5.600000000     2.138000000     1.638000000
O     7.590000000     0.013000000    -2.063000000
H     8.415000000     0.496000000    -2.020000000
H     6.945000000     0.665000000    -2.337000000
O     6.749000000     2.128000000    -0.379000000
H     6.694000000     2.945000000    -0.875000000
H     5.843000000     1.825000000    -0.316000000
