215
-1442.14239
C     0.732000000    -2.954000000     4.430000000
H     0.133000000    -3.781000000     4.057000000
C     0.407000000    -1.610000000     4.471000000
C     1.249000000    -0.675000000     5.115000000
H     1.051000000     0.390000000     5.197000000
C    -0.944000000    -1.087000000     4.029000000
O    -1.866000000    -2.143000000     4.052000000
H    -0.813000000    -0.665000000     3.022000000
O    -1.404000000     0.038000000     4.881000000
C    -2.018000000     1.064000000     4.198000000
C    -1.278000000     2.204000000     3.905000000
H    -0.237000000     2.137000000     4.213000000
C    -1.784000000     3.202000000     3.035000000
O    -0.906000000     4.122000000     2.628000000
C    -2.975000000     3.044000000     2.348000000
C    -3.516000000     4.122000000     1.466000000
H    -4.589000000     4.283000000     1.593000000
C    -3.080000000     3.737000000     0.046000000
C    -3.909000000     3.032000000    -0.861000000
H    -4.938000000     2.814000000    -0.588000000
H    -3.096000000     5.064000000     1.825000000
C    -3.736000000     1.935000000     2.705000000
H    -4.688000000     1.785000000     2.204000000
C    -3.247000000     0.932000000     3.537000000
C    -4.035000000    -0.295000000     3.598000000
H    -5.105000000    -0.100000000     3.507000000
H    -3.854000000    -0.641000000     4.618000000
C    -3.589000000    -1.352000000     2.632000000
C    -4.367000000    -1.495000000     1.469000000
H    -5.160000000    -0.775000000     1.286000000
C    -2.588000000    -2.283000000     2.877000000
C    -2.233000000    -3.335000000     2.045000000
H    -1.428000000    -4.006000000     2.332000000
C    -2.896000000    -3.329000000     0.794000000
O    -2.468000000    -4.203000000    -0.195000000
C    -1.650000000    -3.714000000    -1.254000000
C    -0.405000000    -4.510000000    -1.580000000
C     0.004000000    -4.618000000    -2.893000000
H    -0.576000000    -4.200000000    -3.711000000
C     0.421000000    -5.025000000    -0.573000000
H     0.203000000    -4.876000000     0.482000000
O    -2.461000000    -3.509000000    -2.468000000
H    -1.399000000    -2.722000000    -0.850000000
C    -4.001000000    -2.470000000     0.563000000
C    -4.811000000    -2.566000000    -0.797000000
H    -5.836000000    -2.208000000    -0.684000000
H    -4.842000000    -3.630000000    -1.041000000
C    -4.096000000    -1.767000000    -1.840000000
C    -4.565000000    -0.477000000    -2.017000000
H    -5.450000000    -0.136000000    -1.487000000
C    -3.019000000    -2.235000000    -2.657000000
C    -2.485000000    -1.463000000    -3.653000000
H    -1.736000000    -1.845000000    -4.342000000
C    -2.886000000    -0.142000000    -3.805000000
O    -2.096000000     0.611000000    -4.605000000
C    -1.183000000     1.496000000    -3.981000000
C     0.230000000     1.494000000    -4.715000000
C     0.747000000     0.282000000    -5.295000000
H     0.091000000    -0.585000000    -5.302000000
C     1.007000000     2.658000000    -4.674000000
H     0.613000000     3.590000000    -4.277000000
O    -1.670000000     2.825000000    -3.814000000
H    -1.031000000     1.108000000    -2.963000000
C    -3.882000000     0.361000000    -2.933000000
C    -4.303000000     1.817000000    -3.057000000
H    -5.360000000     1.965000000    -2.828000000
H    -4.131000000     2.177000000    -4.074000000
C    -3.458000000     2.663000000    -2.113000000
C    -2.182000000     3.109000000    -2.549000000
C    -1.348000000     3.862000000    -1.670000000
H    -0.347000000     4.118000000    -2.007000000
C    -1.741000000     4.094000000    -0.356000000
O    -0.812000000     4.698000000     0.464000000
C    -0.097000000     3.924000000     1.438000000
H    -0.125000000     2.875000000     1.106000000
C     1.388000000     4.352000000     1.522000000
C     2.132000000     4.091000000     2.698000000
H     1.538000000     3.673000000     3.507000000
C     2.089000000     4.817000000     0.400000000
H     1.545000000     4.904000000    -0.536000000
C     3.446000000     4.922000000     0.390000000
O     4.282000000     5.356000000    -0.697000000
C     4.125000000     4.780000000     1.619000000
H     5.189000000     5.004000000     1.629000000
C     3.488000000     4.265000000     2.792000000
O     4.190000000     3.977000000     3.920000000
C     3.628000000     3.235000000     4.979000000
C     3.850000000     1.809000000     5.098000000
H     4.541000000     1.263000000     4.460000000
C     2.916000000     3.889000000     5.989000000
H     2.661000000     4.944000000     5.927000000
C     2.506000000     3.167000000     7.121000000
H     2.089000000     3.749000000     7.938000000
C     2.582000000     1.775000000     7.188000000
H     2.067000000     1.309000000     8.023000000
C     3.300000000     1.084000000     6.155000000
O     3.381000000    -0.236000000     6.186000000
C     2.457000000    -1.117000000     5.649000000
C     2.844000000    -2.428000000     5.473000000
H     3.845000000    -2.702000000     5.798000000
C     1.982000000    -3.302000000     4.893000000
O     2.446000000    -4.607000000     4.580000000
C     1.948000000    -5.552000000     3.751000000
C     2.325000000    -5.338000000     2.444000000
H     2.918000000    -4.455000000     2.219000000
C     1.422000000    -6.762000000     4.186000000
H     1.194000000    -6.868000000     5.244000000
C     0.933000000    -7.635000000     3.237000000
H     0.342000000    -8.477000000     3.589000000
C     1.341000000    -7.416000000     1.853000000
H     1.055000000    -8.145000000     1.098000000
C     1.982000000    -6.278000000     1.443000000
O     2.406000000    -6.228000000     0.085000000
C     1.582000000    -5.655000000    -0.856000000
C     2.057000000    -5.784000000    -2.156000000
H     3.008000000    -6.263000000    -2.374000000
C     1.284000000    -5.166000000    -3.161000000
O     1.628000000    -5.238000000    -4.461000000
C     1.433000000    -4.274000000    -5.414000000
C     2.095000000    -3.063000000    -5.304000000
H     2.540000000    -2.779000000    -4.354000000
C     0.703000000    -4.707000000    -6.550000000
H     0.200000000    -5.669000000    -6.503000000
C     0.403000000    -3.730000000    -7.512000000
H    -0.251000000    -3.937000000    -8.355000000
C     1.111000000    -2.506000000    -7.436000000
H     1.083000000    -1.822000000    -8.281000000
C     1.867000000    -2.095000000    -6.307000000
O     2.556000000    -0.900000000    -6.260000000
C     2.034000000     0.281000000    -5.823000000
C     2.686000000     1.472000000    -5.871000000
H     3.704000000     1.535000000    -6.247000000
C     2.249000000     2.614000000    -5.174000000
O     3.108000000     3.651000000    -5.049000000
C     3.065000000     4.706000000    -4.092000000
C     2.333000000     5.836000000    -4.423000000
H     1.796000000     5.850000000    -5.367000000
C     2.169000000     6.848000000    -3.434000000
H     1.537000000     7.724000000    -3.555000000
C     2.870000000     6.674000000    -2.209000000
H     2.800000000     7.528000000    -1.540000000
C     3.699000000     5.558000000    -1.930000000
C     3.762000000     4.590000000    -2.907000000
H     4.328000000     3.709000000    -2.615000000
C     1.650000000    -0.366000000    -1.507000000
H     2.109000000    -0.386000000    -2.492000000
C     0.329000000    -0.740000000    -1.302000000
H    -0.272000000    -1.189000000    -2.089000000
C    -0.333000000    -0.431000000    -0.129000000
H    -1.439000000    -0.684000000    -0.037000000
C     0.284000000     0.298000000     0.845000000
H    -0.293000000     0.582000000     1.721000000
C     1.657000000     0.683000000     0.660000000
H     2.174000000     1.348000000     1.347000000
C     2.322000000     0.311000000    -0.501000000
C     3.704000000     0.694000000    -0.739000000
O     4.355000000     0.670000000     0.248000000
O     4.159000000     0.951000000    -1.825000000
O     8.149000000     3.607000000    -0.884000000
H     8.990000000     4.064000000    -0.912000000
H     8.100000000     3.143000000    -1.719000000
O     5.025000000    -2.484000000    -0.771000000
H     4.651000000    -1.907000000    -0.104000000
H     4.802000000    -2.065000000    -1.602000000
O     9.805000000    -1.330000000     0.783000000
H     8.965000000    -1.556000000     0.383000000
H    10.180000000    -0.673000000     0.196000000
O     4.719000000    -1.367000000    -3.106000000
H     4.710000000    -0.573000000    -2.572000000
H     4.219000000    -1.136000000    -3.888000000
O     5.578000000    -3.611000000     3.601000000
H     4.720000000    -3.304000000     3.309000000
H     6.186000000    -3.292000000     2.934000000
O     4.499000000    -1.184000000     2.258000000
H     4.652000000    -0.518000000     1.588000000
H     3.555000000    -1.156000000     2.413000000
O     5.487000000    -4.948000000    -2.138000000
H     5.569000000    -4.204000000    -1.542000000
H     5.267000000    -5.686000000    -1.570000000
O    10.177000000    -2.732000000    -1.861000000
H    10.820000000    -2.052000000    -2.062000000
H     9.345000000    -2.373000000    -2.169000000
O     7.519000000    -1.250000000    -2.768000000
H     6.674000000    -1.666000000    -2.943000000
H     7.295000000    -0.367000000    -2.473000000
O     8.187000000    -0.819000000    -5.406000000
H     9.073000000    -0.469000000    -5.492000000
H     8.055000000    -0.907000000    -4.462000000
O     7.289000000    -3.049000000     0.526000000
H     7.490000000    -3.950000000     0.273000000
H     6.485000000    -2.841000000     0.051000000
O     9.375000000     0.879000000     3.401000000
H    10.153000000     0.334000000     3.281000000
H     9.297000000     1.368000000     2.582000000
O     7.033000000     6.452000000    -0.065000000
H     7.019000000     5.518000000    -0.274000000
H     7.960000000     6.655000000     0.058000000
O     8.985000000     1.814000000    -3.433000000
H     8.055000000     1.728000000    -3.226000000
H     9.022000000     1.785000000    -4.389000000
O     7.689000000     2.926000000     3.982000000
H     8.176000000     2.110000000     3.873000000
H     6.975000000     2.866000000     3.346000000
O     7.758000000    -1.958000000     2.888000000
H     7.008000000    -1.365000000     2.845000000
H     7.930000000    -2.192000000     1.976000000
O     6.681000000     1.223000000    -1.729000000
H     6.809000000     1.090000000    -0.790000000
H     5.731000000     1.216000000    -1.845000000
O    10.172000000     0.682000000    -1.179000000
H    11.073000000     0.844000000    -1.459000000
H     9.634000000     1.131000000    -1.831000000
O     6.987000000     1.892000000     1.329000000
H     7.482000000     2.483000000     0.762000000
H     6.106000000     1.883000000     0.954000000
