215
-1448.89893
C     1.619000000    -3.159000000     3.343000000
H     0.989000000    -4.021000000     3.138000000
C     1.115000000    -1.932000000     3.755000000
C     1.987000000    -0.999000000     4.190000000
H     1.575000000    -0.064000000     4.560000000
C    -0.346000000    -1.614000000     3.519000000
O    -1.170000000    -2.736000000     3.681000000
H    -0.307000000    -1.291000000     2.468000000
O    -0.810000000    -0.593000000     4.419000000
C    -1.626000000     0.322000000     3.946000000
C    -1.016000000     1.551000000     3.714000000
H     0.066000000     1.591000000     3.817000000
C    -1.720000000     2.673000000     3.279000000
O    -1.059000000     3.819000000     3.049000000
C    -3.085000000     2.477000000     2.906000000
C    -3.812000000     3.594000000     2.233000000
H    -4.879000000     3.504000000     2.447000000
C    -3.484000000     3.603000000     0.767000000
C    -4.340000000     2.895000000    -0.155000000
H    -5.257000000     2.404000000     0.161000000
H    -3.503000000     4.564000000     2.628000000
C    -3.724000000     1.243000000     3.148000000
H    -4.800000000     1.175000000     3.010000000
C    -2.987000000     0.168000000     3.606000000
C    -3.561000000    -1.198000000     3.883000000
H    -4.640000000    -1.111000000     4.027000000
H    -3.158000000    -1.616000000     4.808000000
C    -3.308000000    -2.113000000     2.753000000
C    -4.264000000    -2.147000000     1.723000000
H    -5.072000000    -1.421000000     1.686000000
C    -2.198000000    -2.949000000     2.759000000
C    -1.983000000    -3.883000000     1.723000000
H    -1.054000000    -4.439000000     1.628000000
C    -2.840000000    -3.827000000     0.636000000
O    -2.520000000    -4.526000000    -0.501000000
C    -1.802000000    -3.756000000    -1.499000000
C    -0.624000000    -4.483000000    -2.054000000
C     0.107000000    -3.950000000    -3.105000000
H    -0.242000000    -3.044000000    -3.593000000
C    -0.104000000    -5.526000000    -1.338000000
H    -0.488000000    -5.779000000    -0.353000000
O    -2.756000000    -3.401000000    -2.513000000
H    -1.411000000    -2.819000000    -1.076000000
C    -4.030000000    -3.046000000     0.651000000
C    -4.921000000    -2.887000000    -0.559000000
H    -5.933000000    -2.705000000    -0.194000000
H    -4.995000000    -3.885000000    -0.997000000
C    -4.396000000    -1.862000000    -1.651000000
C    -4.885000000    -0.522000000    -1.613000000
H    -5.729000000    -0.277000000    -0.974000000
C    -3.385000000    -2.205000000    -2.578000000
C    -2.851000000    -1.239000000    -3.398000000
H    -2.013000000    -1.513000000    -4.034000000
C    -3.266000000     0.069000000    -3.261000000
O    -2.554000000     0.999000000    -4.052000000
C    -1.670000000     1.775000000    -3.348000000
C    -0.228000000     1.661000000    -3.851000000
C     0.078000000     0.865000000    -4.976000000
H    -0.679000000     0.304000000    -5.518000000
C     0.732000000     2.469000000    -3.297000000
H     0.505000000     3.093000000    -2.436000000
O    -2.212000000     3.190000000    -3.229000000
H    -1.654000000     1.347000000    -2.334000000
C    -4.250000000     0.431000000    -2.356000000
C    -4.766000000     1.848000000    -2.357000000
H    -5.823000000     1.959000000    -2.108000000
H    -4.632000000     2.239000000    -3.368000000
C    -3.897000000     2.771000000    -1.504000000
C    -2.785000000     3.440000000    -1.994000000
C    -2.008000000     4.083000000    -1.119000000
H    -1.040000000     4.495000000    -1.391000000
C    -2.347000000     4.250000000     0.261000000
O    -1.372000000     4.774000000     1.057000000
C    -0.502000000     3.928000000     1.783000000
H    -0.437000000     2.954000000     1.278000000
C     0.890000000     4.555000000     1.957000000
C     1.620000000     4.433000000     3.137000000
H     1.183000000     3.733000000     3.845000000
C     1.401000000     5.403000000     0.950000000
H     0.753000000     5.567000000     0.093000000
C     2.653000000     5.990000000     1.031000000
O     3.033000000     6.816000000     0.033000000
C     3.455000000     5.751000000     2.143000000
H     4.499000000     6.056000000     2.124000000
C     2.917000000     5.013000000     3.199000000
O     3.699000000     4.652000000     4.277000000
C     3.610000000     3.468000000     4.976000000
C     3.803000000     2.251000000     4.419000000
H     4.033000000     2.201000000     3.358000000
C     3.295000000     3.563000000     6.314000000
H     3.044000000     4.533000000     6.737000000
C     3.177000000     2.391000000     7.078000000
H     3.075000000     2.423000000     8.160000000
C     3.526000000     1.134000000     6.523000000
H     3.677000000     0.255000000     7.145000000
C     3.732000000     1.076000000     5.145000000
O     4.167000000    -0.151000000     4.776000000
C     3.313000000    -1.200000000     4.305000000
C     3.859000000    -2.363000000     3.746000000
H     4.941000000    -2.464000000     3.709000000
C     3.009000000    -3.337000000     3.229000000
O     3.580000000    -4.542000000     2.806000000
C     2.843000000    -5.538000000     2.329000000
C     2.551000000    -5.751000000     0.965000000
H     2.790000000    -4.970000000     0.248000000
C     2.535000000    -6.562000000     3.221000000
H     2.990000000    -6.599000000     4.208000000
C     2.053000000    -7.752000000     2.648000000
H     2.046000000    -8.660000000     3.246000000
C     1.659000000    -7.924000000     1.347000000
H     1.308000000    -8.902000000     1.028000000
C     1.935000000    -6.876000000     0.449000000
O     1.699000000    -7.050000000    -0.890000000
C     1.053000000    -6.150000000    -1.700000000
C     1.790000000    -5.654000000    -2.776000000
H     2.765000000    -6.069000000    -3.017000000
C     1.292000000    -4.558000000    -3.523000000
O     2.143000000    -4.087000000    -4.468000000
C     1.839000000    -3.370000000    -5.593000000
C     1.938000000    -1.970000000    -5.563000000
H     2.360000000    -1.537000000    -4.660000000
C     1.408000000    -3.993000000    -6.716000000
H     1.287000000    -5.073000000    -6.734000000
C     1.149000000    -3.222000000    -7.880000000
H     0.958000000    -3.705000000    -8.835000000
C     1.212000000    -1.833000000    -7.894000000
H     0.985000000    -1.253000000    -8.785000000
C     1.576000000    -1.204000000    -6.656000000
O     1.581000000     0.171000000    -6.642000000
C     1.311000000     0.913000000    -5.499000000
C     2.302000000     1.768000000    -4.987000000
H     3.322000000     1.787000000    -5.363000000
C     1.947000000     2.610000000    -3.926000000
O     2.964000000     3.447000000    -3.435000000
C     2.716000000     4.741000000    -2.949000000
C     2.303000000     5.698000000    -3.865000000
H     1.947000000     5.345000000    -4.829000000
C     2.132000000     7.053000000    -3.494000000
H     1.755000000     7.832000000    -4.152000000
C     2.497000000     7.377000000    -2.171000000
H     2.317000000     8.373000000    -1.773000000
C     2.858000000     6.430000000    -1.295000000
C     3.077000000     5.101000000    -1.661000000
H     3.292000000     4.396000000    -0.863000000
C     1.822000000    -0.082000000    -1.713000000
H     2.514000000    -0.425000000    -2.478000000
C     0.522000000    -0.651000000    -1.731000000
H     0.287000000    -1.275000000    -2.590000000
C    -0.321000000    -0.343000000    -0.700000000
H    -1.334000000    -0.706000000    -0.668000000
C     0.074000000     0.506000000     0.343000000
H    -0.648000000     0.818000000     1.094000000
C     1.377000000     0.998000000     0.378000000
H     1.692000000     1.594000000     1.231000000
C     2.310000000     0.723000000    -0.679000000
C     3.757000000     1.184000000    -0.660000000
O     4.064000000     1.926000000     0.224000000
O     4.607000000     0.686000000    -1.336000000
O     6.075000000     6.471000000    -2.249000000
H     5.722000000     5.820000000    -2.856000000
H     6.718000000     6.956000000    -2.766000000
O     7.023000000    -2.137000000     1.177000000
H     6.601000000    -1.294000000     1.342000000
H     6.311000000    -2.710000000     0.892000000
O     9.611000000    -2.379000000     0.496000000
H     9.382000000    -2.603000000    -0.406000000
H     8.854000000    -1.893000000     0.822000000
O     4.973000000     0.096000000    -4.108000000
H     4.806000000    -0.846000000    -4.137000000
H     4.931000000     0.318000000    -3.178000000
O     5.802000000     0.250000000     1.641000000
H     4.854000000     0.137000000     1.567000000
H     5.971000000     1.109000000     1.254000000
O     9.202000000     0.994000000     0.372000000
H     8.883000000     1.858000000     0.110000000
H     9.631000000     0.649000000    -0.411000000
O     8.988000000     2.196000000    -2.525000000
H     8.634000000     2.164000000    -3.414000000
H     8.432000000     2.827000000    -2.069000000
O     8.472000000    -1.846000000    -3.209000000
H     7.963000000    -2.633000000    -3.014000000
H     8.113000000    -1.178000000    -2.626000000
O     5.056000000    -2.684000000    -4.285000000
H     5.210000000    -2.817000000    -3.350000000
H     4.398000000    -3.340000000    -4.515000000
O     8.332000000    -0.116000000    -5.648000000
H     7.636000000     0.484000000    -5.382000000
H     8.507000000    -0.641000000    -4.867000000
O     6.042000000     7.605000000     0.277000000
H     5.154000000     7.958000000     0.330000000
H     5.971000000     6.868000000    -0.330000000
O     6.108000000     3.131000000    -1.585000000
H     5.747000000     2.628000000    -0.854000000
H     5.368000000     3.644000000    -1.911000000
O     5.928000000    -2.979000000    -1.673000000
H     6.396000000    -2.359000000    -1.114000000
H     5.835000000    -3.765000000    -1.135000000
O     6.951000000     2.146000000    -5.039000000
H     6.290000000     1.850000000    -4.413000000
H     7.117000000     3.058000000    -4.799000000
O     7.002000000     1.262000000     4.043000000
H     6.619000000     2.133000000     4.147000000
H     6.390000000     0.798000000     3.472000000
O     8.373000000     4.824000000    -2.965000000
H     7.947000000     5.400000000    -3.599000000
H     7.680000000     4.595000000    -2.346000000
O     7.140000000     0.064000000    -1.391000000
H     6.215000000     0.308000000    -1.433000000
H     7.587000000     0.865000000    -1.118000000
O     8.835000000     3.720000000    -0.355000000
H     8.891000000     4.388000000     0.328000000
H     9.746000000     3.509000000    -0.559000000
O     6.430000000     2.960000000     1.391000000
H     7.037000000     3.132000000     0.672000000
H     5.592000000     3.308000000     1.086000000
