215
-1462.55400
C     0.461000000    -3.059000000     4.242000000
H    -0.270000000    -3.680000000     3.731000000
C     0.093000000    -1.727000000     4.469000000
C     1.015000000    -0.895000000     5.082000000
H     0.762000000     0.134000000     5.321000000
C    -1.230000000    -1.183000000     3.926000000
O    -2.202000000    -2.207000000     3.822000000
H    -0.991000000    -0.925000000     2.884000000
O    -1.625000000    -0.056000000     4.741000000
C    -2.150000000     0.995000000     4.020000000
C    -1.239000000     2.079000000     3.739000000
H    -0.243000000     2.119000000     4.172000000
C    -1.674000000     3.136000000     2.916000000
O    -0.768000000     4.069000000     2.557000000
C    -2.856000000     3.055000000     2.194000000
C    -3.285000000     4.136000000     1.192000000
H    -4.371000000     4.211000000     1.105000000
C    -2.682000000     4.052000000    -0.189000000
C    -3.488000000     3.485000000    -1.195000000
H    -4.515000000     3.175000000    -1.018000000
H    -2.873000000     5.101000000     1.493000000
C    -3.748000000     2.023000000     2.549000000
H    -4.702000000     1.941000000     2.033000000
C    -3.404000000     0.960000000     3.391000000
C    -4.324000000    -0.194000000     3.558000000
H    -5.334000000     0.068000000     3.237000000
H    -4.339000000    -0.595000000     4.574000000
C    -3.981000000    -1.306000000     2.532000000
C    -4.619000000    -1.232000000     1.267000000
H    -5.321000000    -0.457000000     0.971000000
C    -3.048000000    -2.281000000     2.734000000
C    -2.879000000    -3.249000000     1.793000000
H    -2.150000000    -4.025000000     2.016000000
C    -3.519000000    -3.233000000     0.577000000
O    -3.153000000    -4.084000000    -0.423000000
C    -2.230000000    -3.643000000    -1.479000000
C    -1.220000000    -4.625000000    -1.867000000
C    -0.747000000    -4.725000000    -3.170000000
H    -1.282000000    -4.228000000    -3.975000000
C    -0.529000000    -5.252000000    -0.830000000
H    -0.848000000    -5.010000000     0.180000000
O    -3.013000000    -3.251000000    -2.688000000
H    -1.793000000    -2.743000000    -1.022000000
C    -4.378000000    -2.163000000     0.285000000
C    -5.076000000    -1.994000000    -1.092000000
H    -6.031000000    -1.537000000    -0.827000000
H    -5.444000000    -2.926000000    -1.526000000
C    -4.238000000    -1.277000000    -2.120000000
C    -4.410000000     0.115000000    -2.343000000
H    -5.236000000     0.593000000    -1.822000000
C    -3.297000000    -1.932000000    -2.897000000
C    -2.465000000    -1.157000000    -3.769000000
H    -1.644000000    -1.569000000    -4.351000000
C    -2.600000000     0.205000000    -3.906000000
O    -1.588000000     0.882000000    -4.564000000
C    -0.631000000     1.642000000    -3.796000000
C     0.824000000     1.426000000    -4.257000000
C     1.202000000     0.241000000    -4.789000000
H     0.437000000    -0.515000000    -4.947000000
C     1.766000000     2.392000000    -4.022000000
H     1.511000000     3.378000000    -3.642000000
O    -1.011000000     3.023000000    -3.802000000
H    -0.723000000     1.242000000    -2.776000000
C    -3.589000000     0.848000000    -3.227000000
C    -3.862000000     2.334000000    -3.392000000
H    -4.883000000     2.618000000    -3.131000000
H    -3.688000000     2.635000000    -4.427000000
C    -2.919000000     3.143000000    -2.434000000
C    -1.584000000     3.485000000    -2.666000000
C    -0.907000000     4.229000000    -1.785000000
H     0.126000000     4.560000000    -1.862000000
C    -1.394000000     4.481000000    -0.508000000
O    -0.452000000     4.937000000     0.443000000
C     0.027000000     3.945000000     1.397000000
H    -0.096000000     2.947000000     0.951000000
C     1.524000000     4.152000000     1.685000000
C     2.121000000     3.723000000     2.902000000
H     1.518000000     3.344000000     3.723000000
C     2.316000000     4.732000000     0.698000000
H     1.924000000     5.119000000    -0.239000000
C     3.721000000     4.982000000     0.931000000
O     4.479000000     5.653000000    -0.031000000
C     4.327000000     4.650000000     2.142000000
H     5.342000000     4.958000000     2.382000000
C     3.550000000     3.878000000     3.072000000
O     4.066000000     3.724000000     4.316000000
C     3.651000000     2.930000000     5.286000000
C     3.438000000     1.605000000     5.036000000
H     3.589000000     1.168000000     4.052000000
C     3.520000000     3.502000000     6.548000000
H     3.594000000     4.584000000     6.608000000
C     3.174000000     2.726000000     7.610000000
H     2.802000000     3.077000000     8.568000000
C     3.054000000     1.321000000     7.444000000
H     2.720000000     0.731000000     8.294000000
C     3.224000000     0.756000000     6.158000000
O     3.220000000    -0.638000000     6.108000000
C     2.282000000    -1.351000000     5.433000000
C     2.654000000    -2.653000000     5.198000000
H     3.555000000    -3.078000000     5.634000000
C     1.717000000    -3.573000000     4.576000000
O     2.138000000    -4.877000000     4.287000000
C     1.352000000    -5.644000000     3.465000000
C     1.746000000    -5.819000000     2.144000000
H     2.552000000    -5.239000000     1.703000000
C     0.347000000    -6.411000000     4.024000000
H     0.061000000    -6.351000000     5.070000000
C    -0.370000000    -7.245000000     3.140000000
H    -1.206000000    -7.787000000     3.574000000
C    -0.091000000    -7.272000000     1.790000000
H    -0.725000000    -7.881000000     1.151000000
C     0.940000000    -6.497000000     1.271000000
O     1.239000000    -6.589000000    -0.043000000
C     0.627000000    -5.926000000    -1.071000000
C     1.073000000    -6.123000000    -2.378000000
H     1.984000000    -6.674000000    -2.596000000
C     0.505000000    -5.372000000    -3.412000000
O     1.073000000    -5.479000000    -4.683000000
C     1.229000000    -4.489000000    -5.586000000
C     1.991000000    -3.379000000    -5.203000000
H     2.513000000    -3.413000000    -4.251000000
C     0.593000000    -4.467000000    -6.862000000
H     0.079000000    -5.327000000    -7.284000000
C     0.707000000    -3.304000000    -7.642000000
H     0.276000000    -3.246000000    -8.638000000
C     1.402000000    -2.183000000    -7.242000000
H     1.531000000    -1.395000000    -7.979000000
C     2.140000000    -2.273000000    -6.032000000
O     3.013000000    -1.238000000    -5.641000000
C     2.542000000    -0.041000000    -5.074000000
C     3.470000000     0.929000000    -4.849000000
H     4.508000000     0.817000000    -5.154000000
C     3.108000000     2.183000000    -4.279000000
O     4.086000000     3.160000000    -4.054000000
C     3.934000000     4.372000000    -3.438000000
C     3.849000000     5.543000000    -4.176000000
H     4.007000000     5.539000000    -5.251000000
C     3.732000000     6.760000000    -3.530000000
H     3.648000000     7.670000000    -4.119000000
C     3.973000000     6.767000000    -2.136000000
H     3.976000000     7.714000000    -1.603000000
C     4.124000000     5.595000000    -1.400000000
C     3.907000000     4.390000000    -2.057000000
H     3.968000000     3.398000000    -1.618000000
C     2.131000000    -0.223000000    -1.043000000
H     2.419000000    -0.405000000    -2.075000000
C     0.825000000    -0.323000000    -0.603000000
H     0.103000000    -0.654000000    -1.345000000
C     0.460000000     0.074000000     0.771000000
H    -0.593000000     0.030000000     1.017000000
C     1.498000000     0.456000000     1.595000000
H     1.191000000     0.694000000     2.610000000
C     2.839000000     0.552000000     1.193000000
H     3.637000000     0.905000000     1.841000000
C     3.153000000     0.235000000    -0.124000000
C     4.592000000     0.148000000    -0.593000000
O     5.423000000     0.405000000     0.239000000
O     4.910000000     0.112000000    -1.763000000
O     7.830000000     4.197000000     2.272000000
H     7.691000000     4.647000000     3.106000000
H     7.889000000     4.901000000     1.627000000
O     7.556000000    -0.932000000    -0.274000000
H     7.285000000    -1.835000000    -0.441000000
H     6.735000000    -0.452000000    -0.167000000
O     7.589000000     5.471000000    -0.059000000
H     8.282000000     5.645000000    -0.696000000
H     6.812000000     5.302000000    -0.591000000
O    10.915000000    -2.561000000    -0.109000000
H    10.048000000    -2.202000000     0.079000000
H    11.137000000    -2.213000000    -0.973000000
O     5.486000000    -1.721000000    -3.460000000
H     5.224000000    -1.262000000    -2.662000000
H     6.096000000    -1.123000000    -3.891000000
O     6.149000000    -3.646000000     2.092000000
H     5.992000000    -4.534000000     1.769000000
H     7.081000000    -3.631000000     2.307000000
O     6.146000000    -1.554000000     4.282000000
H     6.719000000    -0.873000000     3.931000000
H     5.972000000    -2.128000000     3.535000000
O     7.964000000    -3.034000000    -3.397000000
H     7.095000000    -2.832000000    -3.051000000
H     7.845000000    -3.054000000    -4.346000000
O    10.327000000     1.077000000    -0.243000000
H     9.394000000     1.291000000    -0.214000000
H    10.606000000     1.344000000    -1.119000000
O     8.056000000    -0.129000000    -5.639000000
H     8.340000000     0.120000000    -4.759000000
H     8.506000000     0.484000000    -6.219000000
O     6.967000000     1.989000000     5.335000000
H     6.178000000     1.846000000     5.857000000
H     6.714000000     1.740000000     4.446000000
O     5.397000000    -3.790000000    -5.244000000
H     6.217000000    -3.489000000    -5.635000000
H     5.139000000    -3.081000000    -4.655000000
O    10.535000000    -1.183000000    -2.531000000
H     9.865000000    -1.864000000    -2.598000000
H    10.323000000    -0.569000000    -3.234000000
O     8.644000000     4.502000000    -2.612000000
H     8.071000000     4.092000000    -3.259000000
H     8.584000000     3.933000000    -1.844000000
O     6.420000000     1.774000000     2.704000000
H     6.830000000     2.612000000     2.489000000
H     6.073000000     1.457000000     1.870000000
O     6.949000000     3.011000000    -4.247000000
H     7.052000000     2.193000000    -3.761000000
H     6.003000000     3.151000000    -4.282000000
O     8.377000000    -0.380000000     2.460000000
H     8.618000000     0.545000000     2.407000000
H     7.839000000    -0.532000000     1.683000000
O     7.235000000     0.474000000    -2.963000000
H     7.803000000     0.068000000    -2.308000000
H     6.364000000     0.462000000    -2.564000000
O     7.470000000     2.213000000    -0.494000000
H     7.378000000     2.778000000     0.274000000
H     6.651000000     1.719000000    -0.527000000
