215
-1446.50672
C     3.753000000    -0.705000000    -2.329000000
H     3.117000000    -1.565000000    -2.521000000
C     4.497000000    -0.561000000    -1.089000000
C     5.356000000     0.528000000    -1.010000000
H     5.961000000     0.724000000    -0.129000000
C     3.980000000    -1.351000000     0.049000000
O     4.006000000    -2.788000000    -0.286000000
H     2.951000000    -1.077000000     0.326000000
O     4.717000000    -1.005000000     1.232000000
C     4.007000000    -0.884000000     2.427000000
C     3.670000000     0.433000000     2.770000000
H     3.907000000     1.236000000     2.076000000
C     2.747000000     0.642000000     3.843000000
O     2.281000000     1.967000000     3.963000000
C     2.168000000    -0.458000000     4.418000000
C     1.142000000    -0.251000000     5.518000000
H     1.124000000    -1.188000000     6.079000000
C    -0.275000000     0.003000000     4.914000000
C    -1.177000000    -1.113000000     4.913000000
H    -0.988000000    -2.075000000     5.382000000
H     1.422000000     0.570000000     6.180000000
C     2.496000000    -1.739000000     3.995000000
H     1.839000000    -2.501000000     4.405000000
C     3.431000000    -1.972000000     3.051000000
C     3.705000000    -3.390000000     2.551000000
H     3.552000000    -4.125000000     3.344000000
H     4.751000000    -3.532000000     2.271000000
C     2.740000000    -3.832000000     1.516000000
C     1.519000000    -4.484000000     1.879000000
H     1.405000000    -4.689000000     2.941000000
C     2.996000000    -3.569000000     0.146000000
C     2.078000000    -3.978000000    -0.795000000
H     2.322000000    -3.728000000    -1.824000000
C     0.832000000    -4.576000000    -0.478000000
O    -0.135000000    -4.807000000    -1.538000000
C    -1.227000000    -3.832000000    -1.580000000
C    -1.460000000    -3.566000000    -3.097000000
C    -2.586000000    -2.981000000    -3.440000000
H    -3.331000000    -2.793000000    -2.671000000
C    -0.419000000    -3.795000000    -4.043000000
H     0.495000000    -4.252000000    -3.672000000
O    -2.408000000    -4.374000000    -0.851000000
H    -0.873000000    -2.950000000    -1.025000000
C     0.587000000    -4.812000000     0.885000000
C    -0.728000000    -5.371000000     1.326000000
H    -0.695000000    -5.906000000     2.278000000
H    -0.973000000    -6.195000000     0.653000000
C    -1.896000000    -4.336000000     1.495000000
C    -2.160000000    -3.663000000     2.701000000
H    -1.576000000    -3.947000000     3.572000000
C    -2.652000000    -3.928000000     0.384000000
C    -3.552000000    -2.868000000     0.454000000
H    -4.108000000    -2.489000000    -0.399000000
C    -3.876000000    -2.333000000     1.698000000
O    -4.691000000    -1.268000000     1.683000000
C    -4.079000000     0.036000000     1.777000000
C    -4.773000000     1.048000000     0.840000000
C    -5.539000000     0.632000000    -0.256000000
H    -5.693000000    -0.428000000    -0.443000000
C    -4.645000000     2.428000000     1.124000000
H    -4.023000000     2.803000000     1.933000000
O    -4.043000000     0.489000000     3.176000000
H    -3.055000000    -0.059000000     1.387000000
C    -3.207000000    -2.706000000     2.828000000
C    -3.362000000    -2.036000000     4.119000000
H    -3.263000000    -2.811000000     4.881000000
H    -4.404000000    -1.711000000     4.140000000
C    -2.438000000    -0.913000000     4.325000000
C    -2.788000000     0.281000000     3.760000000
C    -1.979000000     1.384000000     3.868000000
H    -2.225000000     2.364000000     3.468000000
C    -0.727000000     1.250000000     4.424000000
O     0.043000000     2.382000000     4.402000000
C     1.044000000     2.325000000     3.342000000
H     0.757000000     1.481000000     2.698000000
C     1.284000000     3.622000000     2.515000000
C     2.647000000     4.012000000     2.286000000
H     3.508000000     3.502000000     2.711000000
C     0.250000000     4.042000000     1.682000000
H    -0.732000000     3.575000000     1.699000000
C     0.547000000     5.108000000     0.817000000
O    -0.441000000     5.653000000     0.003000000
C     1.798000000     5.643000000     0.787000000
H     1.949000000     6.479000000     0.108000000
C     2.858000000     5.125000000     1.535000000
O     4.088000000     5.726000000     1.230000000
C     5.138000000     4.946000000     0.718000000
C     5.043000000     3.956000000    -0.282000000
H     4.055000000     3.737000000    -0.680000000
C     6.358000000     5.415000000     1.144000000
H     6.355000000     6.283000000     1.798000000
C     7.619000000     4.803000000     0.699000000
H     8.610000000     5.184000000     0.934000000
C     7.459000000     3.782000000    -0.223000000
H     8.395000000     3.303000000    -0.498000000
C     6.231000000     3.473000000    -0.779000000
O     6.231000000     2.541000000    -1.764000000
C     5.430000000     1.509000000    -1.973000000
C     4.754000000     1.307000000    -3.158000000
H     4.868000000     2.004000000    -3.984000000
C     3.898000000     0.234000000    -3.331000000
O     3.208000000     0.054000000    -4.461000000
C     3.098000000    -1.209000000    -5.120000000
C     1.874000000    -1.871000000    -5.252000000
H     1.018000000    -1.441000000    -4.739000000
C     4.204000000    -1.856000000    -5.649000000
H     5.215000000    -1.577000000    -5.363000000
C     4.114000000    -3.153000000    -6.214000000
H     5.002000000    -3.728000000    -6.466000000
C     2.836000000    -3.695000000    -6.394000000
H     2.729000000    -4.699000000    -6.796000000
C     1.664000000    -3.014000000    -5.956000000
O     0.504000000    -3.601000000    -6.209000000
C    -0.558000000    -3.352000000    -5.375000000
C    -1.789000000    -2.767000000    -5.724000000
H    -2.043000000    -2.467000000    -6.738000000
C    -2.828000000    -2.564000000    -4.762000000
O    -3.874000000    -1.794000000    -5.061000000
C    -4.935000000    -1.528000000    -4.241000000
C    -5.158000000    -0.366000000    -3.538000000
H    -4.303000000     0.305000000    -3.559000000
C    -6.012000000    -2.396000000    -4.360000000
H    -5.902000000    -3.263000000    -5.007000000
C    -7.162000000    -2.175000000    -3.616000000
H    -7.934000000    -2.939000000    -3.573000000
C    -7.380000000    -0.967000000    -2.896000000
H    -8.290000000    -0.761000000    -2.339000000
C    -6.323000000    -0.049000000    -2.852000000
O    -6.569000000     1.166000000    -2.321000000
C    -5.984000000     1.542000000    -1.194000000
C    -5.844000000     2.911000000    -0.969000000
H    -6.258000000     3.657000000    -1.643000000
C    -5.206000000     3.308000000     0.178000000
O    -5.067000000     4.641000000     0.305000000
C    -3.941000000     5.249000000     0.783000000
C    -4.183000000     6.219000000     1.711000000
H    -5.230000000     6.422000000     1.919000000
C    -3.136000000     6.947000000     2.219000000
H    -3.391000000     7.662000000     2.997000000
C    -1.865000000     6.829000000     1.635000000
H    -1.019000000     7.417000000     1.982000000
C    -1.699000000     5.941000000     0.612000000
C    -2.668000000     5.044000000     0.203000000
H    -2.514000000     4.262000000    -0.535000000
C    -0.400000000     1.057000000    -2.460000000
H    -1.088000000     0.901000000    -3.287000000
C    -0.508000000     0.452000000    -1.153000000
H    -1.338000000    -0.162000000    -0.815000000
C     0.429000000     0.832000000    -0.193000000
H     0.328000000     0.460000000     0.911000000
C     1.514000000     1.661000000    -0.498000000
H     2.338000000     1.888000000     0.174000000
C     1.577000000     2.235000000    -1.773000000
H     2.428000000     2.845000000    -2.065000000
C     0.591000000     1.935000000    -2.713000000
C     0.680000000     2.592000000    -4.072000000
O     1.513000000     3.461000000    -4.375000000
O    -0.144000000     2.256000000    -4.910000000
O    -0.562000000     4.052000000    -6.872000000
H    -0.309000000     3.512000000    -6.122000000
H    -0.636000000     4.937000000    -6.516000000
O     2.816000000     3.808000000    -9.343000000
H     2.604000000     3.537000000    -8.450000000
H     3.765000000     3.697000000    -9.408000000
O     3.307000000     6.872000000    -2.413000000
H     2.444000000     7.180000000    -2.136000000
H     3.921000000     7.328000000    -1.838000000
O     2.454000000     2.436000000    -6.508000000
H     2.212000000     2.981000000    -5.760000000
H     1.735000000     1.809000000    -6.591000000
O     1.784000000     6.412000000    -7.490000000
H     1.890000000     5.476000000    -7.658000000
H     0.923000000     6.486000000    -7.079000000
O    -2.906000000     0.136000000    -7.342000000
H    -3.574000000     0.473000000    -6.744000000
H    -3.357000000     0.054000000    -8.182000000
O     6.185000000     4.103000000    -5.971000000
H     5.501000000     4.476000000    -5.416000000
H     6.794000000     3.692000000    -5.358000000
O    -5.214000000     1.503000000    -6.251000000
H    -5.486000000     2.352000000    -6.598000000
H    -4.444000000     1.698000000    -5.716000000
O    -2.771000000     2.270000000    -5.132000000
H    -2.892000000     3.127000000    -4.723000000
H    -1.834000000     2.093000000    -5.045000000
O    -0.797000000     2.483000000    -8.993000000
H    -0.767000000     1.561000000    -8.738000000
H    -0.370000000     2.945000000    -8.272000000
O    -0.303000000     6.815000000    -5.859000000
H    -0.481000000     6.500000000    -4.972000000
H    -0.751000000     7.659000000    -5.908000000
O    -3.266000000     3.554000000    -8.399000000
H    -2.507000000     3.838000000    -8.907000000
H    -2.892000000     3.146000000    -7.617000000
O     1.455000000    -0.705000000    -8.438000000
H     2.033000000    -1.073000000    -7.769000000
H     0.842000000    -0.157000000    -7.949000000
O     4.010000000     4.641000000    -4.293000000
H     3.249000000     4.075000000    -4.164000000
H     3.783000000     5.454000000    -3.843000000
O     4.935000000     1.612000000    -7.055000000
H     4.056000000     1.990000000    -7.095000000
H     5.426000000     2.206000000    -6.488000000
O    -0.009000000     5.439000000    -3.541000000
H     0.713000000     4.882000000    -3.830000000
H     0.399000000     6.077000000    -2.956000000
O    -0.187000000     0.440000000    -6.790000000
H    -1.110000000     0.188000000    -6.822000000
H    -0.139000000     1.081000000    -6.081000000
O    -2.849000000     4.756000000    -4.166000000
H    -3.148000000     5.553000000    -3.728000000
H    -1.894000000     4.811000000    -4.138000000
O     0.680000000     7.859000000    -2.290000000
H     0.023000000     8.021000000    -2.967000000
H     0.189000000     7.881000000    -1.469000000
