215
-1450.15614
C     1.465000000    -3.117000000     3.388000000
H     0.764000000    -3.887000000     3.077000000
C     1.124000000    -1.841000000     3.839000000
C     2.118000000    -1.154000000     4.373000000
H     1.877000000    -0.226000000     4.886000000
C    -0.306000000    -1.375000000     3.649000000
O    -1.203000000    -2.487000000     3.696000000
H    -0.399000000    -0.929000000     2.648000000
O    -0.654000000    -0.415000000     4.595000000
C    -1.421000000     0.618000000     4.207000000
C    -0.807000000     1.851000000     4.072000000
H     0.224000000     1.902000000     4.411000000
C    -1.481000000     2.956000000     3.579000000
O    -0.664000000     4.057000000     3.291000000
C    -2.794000000     2.862000000     3.121000000
C    -3.494000000     3.921000000     2.401000000
H    -4.573000000     3.872000000     2.564000000
C    -3.156000000     3.788000000     0.903000000
C    -4.041000000     3.202000000     0.015000000
H    -4.875000000     2.600000000     0.364000000
H    -3.208000000     4.855000000     2.889000000
C    -3.474000000     1.667000000     3.310000000
H    -4.485000000     1.648000000     2.909000000
C    -2.810000000     0.535000000     3.872000000
C    -3.629000000    -0.720000000     3.914000000
H    -4.681000000    -0.464000000     4.053000000
H    -3.247000000    -1.089000000     4.868000000
C    -3.377000000    -1.709000000     2.768000000
C    -4.339000000    -1.764000000     1.795000000
H    -5.197000000    -1.120000000     1.969000000
C    -2.243000000    -2.582000000     2.794000000
C    -2.098000000    -3.501000000     1.778000000
H    -1.259000000    -4.191000000     1.811000000
C    -2.970000000    -3.494000000     0.729000000
O    -2.642000000    -4.314000000    -0.309000000
C    -1.989000000    -3.729000000    -1.503000000
C    -0.966000000    -4.708000000    -2.142000000
C    -0.599000000    -4.659000000    -3.543000000
H    -1.068000000    -3.850000000    -4.097000000
C    -0.195000000    -5.570000000    -1.416000000
H    -0.338000000    -5.641000000    -0.340000000
O    -2.986000000    -3.323000000    -2.464000000
H    -1.468000000    -2.832000000    -1.137000000
C    -4.100000000    -2.573000000     0.670000000
C    -5.015000000    -2.465000000    -0.541000000
H    -6.028000000    -2.179000000    -0.248000000
H    -5.178000000    -3.487000000    -0.890000000
C    -4.488000000    -1.518000000    -1.623000000
C    -4.773000000    -0.143000000    -1.596000000
H    -5.444000000     0.318000000    -0.876000000
C    -3.544000000    -2.015000000    -2.549000000
C    -2.948000000    -1.119000000    -3.409000000
H    -2.184000000    -1.488000000    -4.089000000
C    -3.181000000     0.259000000    -3.271000000
O    -2.424000000     1.125000000    -4.024000000
C    -1.431000000     1.856000000    -3.250000000
C    -0.041000000     1.944000000    -4.004000000
C     0.279000000     0.932000000    -4.912000000
H    -0.483000000     0.164000000    -5.015000000
C     0.941000000     2.902000000    -3.752000000
H     0.876000000     3.729000000    -3.050000000
O    -2.032000000     3.161000000    -3.038000000
H    -1.272000000     1.261000000    -2.338000000
C    -4.180000000     0.758000000    -2.405000000
C    -4.545000000     2.255000000    -2.337000000
H    -5.612000000     2.327000000    -2.119000000
H    -4.338000000     2.636000000    -3.339000000
C    -3.716000000     3.068000000    -1.336000000
C    -2.481000000     3.485000000    -1.790000000
C    -1.630000000     4.112000000    -0.919000000
H    -0.704000000     4.520000000    -1.314000000
C    -1.982000000     4.336000000     0.400000000
O    -0.988000000     4.933000000     1.175000000
C    -0.146000000     4.080000000     1.949000000
H    -0.079000000     3.092000000     1.472000000
C     1.257000000     4.645000000     2.017000000
C     2.060000000     4.227000000     3.112000000
H     1.645000000     3.595000000     3.893000000
C     1.859000000     5.318000000     0.918000000
H     1.205000000     5.531000000     0.076000000
C     3.218000000     5.675000000     0.964000000
O     3.899000000     6.222000000    -0.121000000
C     3.998000000     5.274000000     2.008000000
H     5.014000000     5.650000000     2.093000000
C     3.429000000     4.539000000     3.036000000
O     4.283000000     4.221000000     4.093000000
C     4.148000000     3.038000000     4.868000000
C     4.348000000     1.771000000     4.413000000
H     4.688000000     1.665000000     3.386000000
C     3.810000000     3.259000000     6.197000000
H     3.620000000     4.279000000     6.520000000
C     3.450000000     2.176000000     7.047000000
H     3.123000000     2.405000000     8.058000000
C     3.606000000     0.884000000     6.532000000
H     3.429000000     0.033000000     7.185000000
C     4.111000000     0.686000000     5.218000000
O     4.400000000    -0.605000000     4.796000000
C     3.439000000    -1.450000000     4.289000000
C     3.829000000    -2.687000000     3.772000000
H     4.853000000    -3.030000000     3.647000000
C     2.797000000    -3.530000000     3.309000000
O     3.200000000    -4.764000000     2.747000000
C     2.559000000    -5.860000000     2.286000000
C     2.199000000    -6.015000000     0.889000000
H     2.410000000    -5.158000000     0.254000000
C     2.213000000    -6.886000000     3.119000000
H     2.410000000    -6.705000000     4.172000000
C     1.544000000    -8.022000000     2.663000000
H     1.209000000    -8.806000000     3.336000000
C     1.236000000    -8.181000000     1.323000000
H     0.843000000    -9.109000000     0.917000000
C     1.546000000    -7.169000000     0.416000000
O     1.416000000    -7.270000000    -0.989000000
C     0.810000000    -6.350000000    -1.877000000
C     1.087000000    -6.337000000    -3.270000000
H     1.919000000    -6.939000000    -3.626000000
C     0.449000000    -5.419000000    -4.067000000
O     0.854000000    -5.194000000    -5.347000000
C     0.665000000    -4.022000000    -6.015000000
C     1.245000000    -2.776000000    -5.622000000
H     1.968000000    -2.777000000    -4.810000000
C     0.007000000    -4.053000000    -7.248000000
H    -0.373000000    -5.005000000    -7.612000000
C    -0.236000000    -2.833000000    -7.877000000
H    -0.835000000    -2.790000000    -8.783000000
C     0.269000000    -1.604000000    -7.488000000
H     0.088000000    -0.728000000    -8.105000000
C     1.127000000    -1.546000000    -6.399000000
O     1.903000000    -0.415000000    -6.085000000
C     1.599000000     0.671000000    -5.283000000
C     2.540000000     1.668000000    -5.071000000
H     3.545000000     1.566000000    -5.473000000
C     2.276000000     2.743000000    -4.280000000
O     3.163000000     3.702000000    -4.083000000
C     3.063000000     4.866000000    -3.316000000
C     2.481000000     5.991000000    -3.933000000
H     2.250000000     5.932000000    -4.993000000
C     2.195000000     7.137000000    -3.204000000
H     1.783000000     8.042000000    -3.644000000
C     2.691000000     7.249000000    -1.912000000
H     2.591000000     8.211000000    -1.417000000
C     3.468000000     6.200000000    -1.398000000
C     3.555000000     4.939000000    -2.007000000
H     3.930000000     4.071000000    -1.472000000
C     1.468000000    -0.384000000    -1.856000000
H     2.072000000    -0.821000000    -2.647000000
C     0.153000000    -0.825000000    -1.771000000
H    -0.150000000    -1.645000000    -2.418000000
C    -0.566000000    -0.336000000    -0.704000000
H    -1.570000000    -0.813000000    -0.548000000
C    -0.073000000     0.624000000     0.153000000
H    -0.715000000     0.981000000     0.954000000
C     1.159000000     1.166000000    -0.021000000
H     1.541000000     1.836000000     0.744000000
C     2.031000000     0.608000000    -0.938000000
C     3.523000000     0.765000000    -0.996000000
O     4.071000000     1.339000000    -0.054000000
O     4.166000000     0.347000000    -1.951000000
O     7.210000000     4.984000000    -2.664000000
H     7.172000000     5.923000000    -2.482000000
H     6.440000000     4.814000000    -3.205000000
O     2.828000000    -2.410000000     0.091000000
H     3.158000000    -2.074000000     0.925000000
H     2.082000000    -1.848000000    -0.115000000
O     4.863000000    -1.807000000    -3.590000000
H     4.986000000    -2.565000000    -3.018000000
H     4.770000000    -1.067000000    -2.990000000
O     7.089000000    -1.048000000     3.167000000
H     6.164000000    -1.228000000     2.995000000
H     7.335000000    -0.402000000     2.505000000
O     4.919000000    -0.921000000     1.421000000
H     4.652000000    -0.077000000     1.058000000
H     5.191000000    -1.434000000     0.660000000
O     5.875000000    -3.902000000     0.680000000
H     5.620000000    -4.605000000     1.278000000
H     6.629000000    -3.490000000     1.101000000
O     8.765000000     1.868000000    -2.119000000
H     8.623000000     0.923000000    -2.063000000
H     8.955000000     2.136000000    -1.220000000
O     8.248000000    -2.118000000    -2.225000000
H     8.162000000    -3.054000000    -2.043000000
H     7.692000000    -1.695000000    -1.571000000
O     5.046000000    -4.974000000    -4.457000000
H     5.243000000    -4.191000000    -4.973000000
H     4.989000000    -4.658000000    -3.555000000
O     7.999000000     0.915000000     1.242000000
H     8.930000000     0.870000000     1.025000000
H     7.915000000     1.708000000     1.772000000
O     5.709000000     2.156000000    -3.085000000
H     5.229000000     1.602000000    -2.470000000
H     5.028000000     2.636000000    -3.557000000
O     4.594000000    -3.942000000    -1.768000000
H     3.965000000    -3.455000000    -1.236000000
H     5.119000000    -4.428000000    -1.133000000
O     7.129000000     5.805000000     0.505000000
H     6.825000000     4.923000000     0.291000000
H     7.882000000     5.945000000    -0.070000000
O     4.737000000    -1.900000000    -6.231000000
H     4.922000000    -1.883000000    -5.292000000
H     3.795000000    -2.065000000    -6.286000000
O     7.040000000     0.619000000    -5.073000000
H     6.288000000     0.705000000    -5.659000000
H     6.682000000     0.777000000    -4.200000000
O     7.177000000     3.085000000     2.485000000
H     7.089000000     3.306000000     1.558000000
H     6.419000000     3.494000000     2.902000000
O     8.312000000     3.544000000    -4.687000000
H     8.173000000     3.380000000    -3.755000000
H     7.439000000     3.731000000    -5.031000000
O     6.554000000    -0.308000000    -1.005000000
H     5.667000000    -0.090000000    -1.292000000
H     6.842000000     0.461000000    -0.513000000
O     6.103000000     3.126000000    -0.396000000
H     6.212000000     3.242000000    -1.340000000
H     5.336000000     2.560000000    -0.310000000
