215
-1467.97022
C     1.781000000    -2.438000000     3.440000000
H     1.328000000    -3.043000000     2.659000000
C     1.007000000    -1.609000000     4.241000000
C     1.658000000    -0.662000000     5.159000000
H     1.015000000     0.025000000     5.703000000
C    -0.443000000    -1.538000000     3.873000000
O    -1.050000000    -2.812000000     3.691000000
H    -0.490000000    -0.945000000     2.947000000
O    -1.112000000    -0.755000000     4.859000000
C    -1.988000000     0.168000000     4.294000000
C    -1.609000000     1.463000000     4.334000000
H    -0.656000000     1.676000000     4.812000000
C    -2.226000000     2.446000000     3.607000000
O    -1.585000000     3.635000000     3.346000000
C    -3.493000000     2.150000000     3.050000000
C    -4.284000000     3.200000000     2.213000000
H    -5.333000000     3.110000000     2.503000000
C    -3.807000000     3.011000000     0.807000000
C    -4.448000000     2.150000000    -0.109000000
H    -5.303000000     1.549000000     0.191000000
H    -4.062000000     4.212000000     2.557000000
C    -3.985000000     0.864000000     3.170000000
H    -4.953000000     0.569000000     2.773000000
C    -3.277000000    -0.216000000     3.787000000
C    -3.785000000    -1.697000000     3.761000000
H    -4.872000000    -1.657000000     3.673000000
H    -3.574000000    -2.247000000     4.681000000
C    -3.157000000    -2.453000000     2.561000000
C    -3.981000000    -2.665000000     1.448000000
H    -4.980000000    -2.237000000     1.441000000
C    -1.849000000    -3.092000000     2.655000000
C    -1.394000000    -3.812000000     1.557000000
H    -0.353000000    -4.121000000     1.605000000
C    -2.249000000    -4.033000000     0.469000000
O    -1.766000000    -4.849000000    -0.585000000
C    -1.323000000    -4.097000000    -1.832000000
C     0.057000000    -4.579000000    -2.259000000
C     0.353000000    -4.501000000    -3.641000000
H    -0.406000000    -4.240000000    -4.374000000
C     1.035000000    -5.103000000    -1.435000000
H     0.816000000    -5.287000000    -0.386000000
O    -2.268000000    -4.017000000    -2.859000000
H    -1.155000000    -3.062000000    -1.500000000
C    -3.566000000    -3.484000000     0.393000000
C    -4.438000000    -3.707000000    -0.858000000
H    -5.505000000    -3.653000000    -0.630000000
H    -4.360000000    -4.739000000    -1.206000000
C    -3.985000000    -2.614000000    -1.970000000
C    -4.528000000    -1.319000000    -1.891000000
H    -5.370000000    -1.174000000    -1.219000000
C    -3.022000000    -2.831000000    -2.951000000
C    -2.583000000    -1.796000000    -3.774000000
H    -1.781000000    -1.946000000    -4.492000000
C    -3.051000000    -0.500000000    -3.620000000
O    -2.410000000     0.571000000    -4.247000000
C    -1.563000000     1.407000000    -3.421000000
C    -0.133000000     1.618000000    -4.008000000
C     0.451000000     0.635000000    -4.844000000
H    -0.097000000    -0.266000000    -5.107000000
C     0.650000000     2.628000000    -3.534000000
H     0.235000000     3.363000000    -2.849000000
O    -2.318000000     2.614000000    -3.052000000
H    -1.373000000     0.934000000    -2.446000000
C    -4.133000000    -0.287000000    -2.708000000
C    -4.680000000     1.073000000    -2.441000000
H    -5.743000000     0.933000000    -2.234000000
H    -4.791000000     1.546000000    -3.419000000
C    -3.969000000     1.963000000    -1.426000000
C    -2.801000000     2.604000000    -1.806000000
C    -2.107000000     3.425000000    -0.887000000
H    -1.296000000     4.101000000    -1.145000000
C    -2.661000000     3.619000000     0.332000000
O    -1.870000000     4.415000000     1.132000000
C    -0.958000000     3.784000000     2.030000000
H    -0.720000000     2.786000000     1.631000000
C     0.253000000     4.679000000     2.154000000
C     1.171000000     4.339000000     3.157000000
H     0.844000000     3.567000000     3.848000000
C     0.632000000     5.616000000     1.189000000
H    -0.045000000     5.767000000     0.353000000
C     1.917000000     6.146000000     1.181000000
O     2.361000000     6.890000000     0.109000000
C     2.844000000     5.814000000     2.178000000
H     3.896000000     6.087000000     2.137000000
C     2.481000000     4.864000000     3.133000000
O     3.486000000     4.366000000     3.932000000
C     3.314000000     3.561000000     5.110000000
C     3.582000000     2.248000000     5.025000000
H     3.997000000     1.863000000     4.097000000
C     2.561000000     4.083000000     6.132000000
H     2.293000000     5.133000000     6.038000000
C     2.235000000     3.296000000     7.166000000
H     1.677000000     3.750000000     7.981000000
C     2.678000000     1.973000000     7.226000000
H     2.472000000     1.386000000     8.117000000
C     3.403000000     1.413000000     6.166000000
O     3.667000000     0.079000000     6.185000000
C     3.060000000    -0.734000000     5.335000000
C     3.804000000    -1.620000000     4.550000000
H     4.888000000    -1.682000000     4.604000000
C     3.173000000    -2.484000000     3.667000000
O     3.938000000    -3.158000000     2.739000000
C     3.588000000    -4.409000000     2.271000000
C     3.400000000    -4.474000000     0.875000000
H     3.498000000    -3.574000000     0.275000000
C     3.662000000    -5.480000000     3.105000000
H     3.847000000    -5.352000000     4.168000000
C     3.487000000    -6.744000000     2.542000000
H     3.602000000    -7.610000000     3.189000000
C     3.262000000    -6.875000000     1.174000000
H     3.093000000    -7.837000000     0.697000000
C     3.209000000    -5.754000000     0.332000000
O     3.178000000    -5.926000000    -1.050000000
C     2.255000000    -5.431000000    -1.913000000
C     2.585000000    -5.312000000    -3.309000000
H     3.525000000    -5.617000000    -3.761000000
C     1.605000000    -4.839000000    -4.171000000
O     1.811000000    -4.749000000    -5.542000000
C     1.719000000    -3.606000000    -6.328000000
C     2.036000000    -2.377000000    -5.766000000
H     2.394000000    -2.277000000    -4.745000000
C     1.238000000    -3.780000000    -7.622000000
H     0.939000000    -4.774000000    -7.944000000
C     1.052000000    -2.647000000    -8.384000000
H     0.799000000    -2.724000000    -9.439000000
C     1.508000000    -1.407000000    -7.911000000
H     1.563000000    -0.490000000    -8.491000000
C     1.902000000    -1.245000000    -6.571000000
O     2.451000000    -0.091000000    -6.110000000
C     1.810000000     0.771000000    -5.289000000
C     2.514000000     1.864000000    -4.856000000
H     3.573000000     1.920000000    -5.095000000
C     1.987000000     2.741000000    -3.912000000
O     2.736000000     3.783000000    -3.457000000
C     2.245000000     4.927000000    -2.957000000
C     1.388000000     5.726000000    -3.784000000
H     1.163000000     5.379000000    -4.789000000
C     0.966000000     6.997000000    -3.382000000
H     0.412000000     7.625000000    -4.075000000
C     1.288000000     7.361000000    -2.062000000
H     0.879000000     8.270000000    -1.627000000
C     2.033000000     6.541000000    -1.240000000
C     2.567000000     5.359000000    -1.648000000
H     3.284000000     4.784000000    -1.068000000
C     1.645000000    -0.583000000    -1.021000000
H     2.518000000    -0.855000000    -1.610000000
C     0.399000000    -0.994000000    -1.404000000
H     0.209000000    -1.597000000    -2.288000000
C    -0.671000000    -0.644000000    -0.644000000
H    -1.640000000    -1.035000000    -0.962000000
C    -0.481000000     0.062000000     0.553000000
H    -1.374000000     0.307000000     1.121000000
C     0.791000000     0.466000000     1.000000000
H     0.867000000     1.005000000     1.940000000
C     1.867000000     0.102000000     0.150000000
C     3.248000000     0.556000000     0.544000000
O     3.421000000     1.309000000     1.497000000
O     4.185000000     0.020000000     0.039000000
O     7.319000000    -2.336000000     3.472000000
H     7.698000000    -1.472000000     3.630000000
H     6.504000000    -2.157000000     3.003000000
O     6.374000000    -1.069000000    -0.645000000
H     6.298000000    -1.996000000    -0.417000000
H     5.514000000    -0.701000000    -0.441000000
O     5.547000000    -0.271000000     2.418000000
H     4.700000000     0.115000000     2.641000000
H     5.343000000    -0.934000000     1.759000000
O     9.178000000    -0.699000000    -0.582000000
H     9.155000000    -1.621000000    -0.837000000
H     8.282000000    -0.391000000    -0.716000000
O     5.576000000    -3.824000000    -4.038000000
H     6.035000000    -4.493000000    -3.529000000
H     5.644000000    -4.126000000    -4.944000000
O     8.727000000     0.005000000     4.316000000
H     9.150000000     0.188000000     3.477000000
H     8.168000000     0.766000000     4.472000000
O     6.084000000     2.916000000    -3.945000000
H     6.197000000     2.992000000    -4.892000000
H     5.437000000     3.588000000    -3.727000000
O     6.103000000     6.055000000     0.718000000
H     5.619000000     5.230000000     0.694000000
H     6.216000000     6.294000000    -0.202000000
O     5.087000000     2.140000000    -1.263000000
H     4.944000000     2.004000000    -2.200000000
H     4.683000000     1.379000000    -0.846000000
O     7.366000000     5.007000000     3.050000000
H     8.064000000     5.639000000     2.881000000
H     6.710000000     5.188000000     2.377000000
O     6.174000000     4.603000000     5.491000000
H     6.635000000     4.426000000     4.671000000
H     5.804000000     5.478000000     5.374000000
O     5.331000000     0.263000000    -5.750000000
H     4.402000000     0.050000000    -5.843000000
H     5.544000000     0.021000000    -4.849000000
O     5.348000000    -1.013000000    -3.273000000
H     5.354000000    -0.861000000    -2.328000000
H     5.241000000    -1.960000000    -3.362000000
O     7.029000000     2.091000000     4.258000000
H     6.976000000     2.980000000     3.908000000
H     6.656000000     1.540000000     3.570000000
O     7.223000000     1.770000000     0.842000000
H     6.810000000     0.929000000     1.038000000
H     6.501000000     2.331000000     0.559000000
O     7.952000000     3.395000000    -1.905000000
H     7.219000000     3.355000000    -2.520000000
H     7.772000000     2.699000000    -1.273000000
O     6.415000000    -4.142000000     0.650000000
H     5.889000000    -4.799000000     1.107000000
H     7.229000000    -4.595000000     0.433000000
O     9.799000000     0.606000000     1.783000000
H     9.803000000     0.309000000     0.873000000
H     9.397000000     1.474000000     1.749000000
O     4.735000000     3.704000000     0.897000000
H     4.829000000     3.290000000     0.039000000
H     4.137000000     3.129000000     1.376000000
