215
-1471.74649
C     1.229000000    -2.467000000     4.642000000
H     0.865000000    -3.369000000     4.157000000
C     0.407000000    -1.303000000     4.812000000
C     0.930000000    -0.215000000     5.469000000
H     0.391000000     0.728000000     5.516000000
C    -0.958000000    -1.206000000     4.137000000
O    -1.676000000    -2.438000000     4.142000000
H    -0.764000000    -0.738000000     3.161000000
O    -1.780000000    -0.229000000     4.752000000
C    -2.435000000     0.625000000     3.929000000
C    -1.945000000     1.912000000     3.633000000
H    -1.062000000     2.272000000     4.156000000
C    -2.632000000     2.644000000     2.696000000
O    -2.114000000     3.848000000     2.341000000
C    -3.682000000     2.171000000     1.951000000
C    -4.364000000     2.970000000     0.862000000
H    -5.417000000     2.681000000     0.903000000
C    -3.747000000     2.884000000    -0.517000000
C    -4.261000000     1.940000000    -1.399000000
H    -5.140000000     1.335000000    -1.192000000
H    -4.323000000     4.017000000     1.169000000
C    -4.194000000     0.899000000     2.211000000
H    -5.118000000     0.574000000     1.741000000
C    -3.561000000     0.177000000     3.229000000
C    -4.134000000    -1.161000000     3.440000000
H    -5.165000000    -1.306000000     3.111000000
H    -4.179000000    -1.396000000     4.505000000
C    -3.473000000    -2.194000000     2.530000000
C    -3.996000000    -2.408000000     1.251000000
H    -4.798000000    -1.790000000     0.854000000
C    -2.267000000    -2.755000000     2.882000000
C    -1.713000000    -3.621000000     2.004000000
H    -0.816000000    -4.137000000     2.340000000
C    -2.193000000    -3.824000000     0.733000000
O    -1.411000000    -4.545000000    -0.142000000
C    -0.879000000    -3.825000000    -1.295000000
C     0.573000000    -4.342000000    -1.570000000
C     1.057000000    -4.483000000    -2.886000000
H     0.391000000    -4.196000000    -3.695000000
C     1.491000000    -4.569000000    -0.529000000
H     1.267000000    -4.343000000     0.510000000
O    -1.799000000    -4.091000000    -2.350000000
H    -0.909000000    -2.750000000    -1.060000000
C    -3.435000000    -3.276000000     0.350000000
C    -4.182000000    -3.395000000    -1.010000000
H    -5.214000000    -3.054000000    -0.904000000
H    -4.134000000    -4.451000000    -1.287000000
C    -3.656000000    -2.552000000    -2.071000000
C    -4.297000000    -1.399000000    -2.387000000
H    -5.141000000    -1.075000000    -1.784000000
C    -2.477000000    -2.917000000    -2.742000000
C    -1.886000000    -2.133000000    -3.705000000
H    -0.930000000    -2.322000000    -4.187000000
C    -2.477000000    -0.857000000    -3.996000000
O    -1.732000000     0.043000000    -4.755000000
C    -1.012000000     1.161000000    -4.074000000
C     0.400000000     1.314000000    -4.681000000
C     0.879000000     0.285000000    -5.463000000
H     0.254000000    -0.518000000    -5.845000000
C     1.158000000     2.417000000    -4.400000000
H     0.819000000     3.288000000    -3.844000000
O    -1.732000000     2.433000000    -4.096000000
H    -0.805000000     0.798000000    -3.057000000
C    -3.710000000    -0.546000000    -3.322000000
C    -4.339000000     0.834000000    -3.588000000
H    -5.404000000     0.901000000    -3.359000000
H    -4.268000000     1.064000000    -4.653000000
C    -3.631000000     1.814000000    -2.640000000
C    -2.503000000     2.592000000    -2.982000000
C    -2.056000000     3.574000000    -2.089000000
H    -1.179000000     4.158000000    -2.356000000
C    -2.644000000     3.650000000    -0.805000000
O    -2.033000000     4.503000000     0.066000000
C    -1.262000000     3.873000000     1.180000000
H    -1.168000000     2.810000000     0.912000000
C     0.062000000     4.573000000     1.592000000
C     0.641000000     4.378000000     2.889000000
H     0.036000000     3.960000000     3.689000000
C     0.896000000     5.115000000     0.551000000
H     0.490000000     5.170000000    -0.456000000
C     2.189000000     5.519000000     0.835000000
O     3.025000000     5.823000000    -0.235000000
C     2.668000000     5.487000000     2.112000000
H     3.681000000     5.794000000     2.358000000
C     1.915000000     4.910000000     3.127000000
O     2.467000000     4.996000000     4.405000000
C     2.134000000     4.201000000     5.506000000
C     2.705000000     2.892000000     5.612000000
H     3.285000000     2.552000000     4.758000000
C     1.516000000     4.695000000     6.658000000
H     1.200000000     5.733000000     6.710000000
C     1.235000000     3.911000000     7.751000000
H     0.755000000     4.352000000     8.621000000
C     1.618000000     2.622000000     7.750000000
H     1.409000000     1.971000000     8.595000000
C     2.396000000     2.074000000     6.702000000
O     2.842000000     0.794000000     6.674000000
C     2.229000000    -0.286000000     6.079000000
C     3.044000000    -1.361000000     5.768000000
H     4.100000000    -1.410000000     6.021000000
C     2.530000000    -2.397000000     5.073000000
O     3.443000000    -3.315000000     4.604000000
C     3.207000000    -4.358000000     3.723000000
C     3.386000000    -4.174000000     2.394000000
H     3.655000000    -3.188000000     2.022000000
C     2.747000000    -5.552000000     4.231000000
H     2.589000000    -5.636000000     5.303000000
C     2.557000000    -6.642000000     3.336000000
H     2.123000000    -7.577000000     3.682000000
C     2.863000000    -6.456000000     1.973000000
H     2.802000000    -7.347000000     1.353000000
C     3.304000000    -5.258000000     1.537000000
O     3.671000000    -5.222000000     0.203000000
C     2.811000000    -4.958000000    -0.852000000
C     3.268000000    -5.150000000    -2.150000000
H     4.201000000    -5.648000000    -2.400000000
C     2.361000000    -4.910000000    -3.172000000
O     2.827000000    -5.010000000    -4.469000000
C     2.324000000    -4.205000000    -5.402000000
C     2.698000000    -2.871000000    -5.413000000
H     3.377000000    -2.498000000    -4.652000000
C     1.438000000    -4.688000000    -6.404000000
H     1.105000000    -5.713000000    -6.544000000
C     0.965000000    -3.765000000    -7.364000000
H     0.353000000    -4.080000000    -8.205000000
C     1.366000000    -2.403000000    -7.408000000
H     1.001000000    -1.675000000    -8.127000000
C     2.335000000    -1.978000000    -6.444000000
O     2.817000000    -0.684000000    -6.498000000
C     2.234000000     0.353000000    -5.846000000
C     3.077000000     1.347000000    -5.416000000
H     4.120000000     1.409000000    -5.715000000
C     2.510000000     2.436000000    -4.751000000
O     3.383000000     3.484000000    -4.488000000
C     2.970000000     4.607000000    -3.697000000
C     2.354000000     5.674000000    -4.407000000
H     2.079000000     5.502000000    -5.444000000
C     1.850000000     6.757000000    -3.705000000
H     1.338000000     7.550000000    -4.245000000
C     2.126000000     6.846000000    -2.316000000
H     1.682000000     7.706000000    -1.822000000
C     2.731000000     5.771000000    -1.586000000
C     3.171000000     4.648000000    -2.302000000
H     3.754000000     3.844000000    -1.860000000
C     2.130000000    -0.673000000    -0.873000000
H     2.932000000    -0.899000000    -1.572000000
C     0.829000000    -0.687000000    -1.315000000
H     0.754000000    -0.929000000    -2.372000000
C    -0.231000000    -0.169000000    -0.550000000
H    -1.240000000    -0.045000000    -1.022000000
C     0.046000000     0.388000000     0.723000000
H    -0.741000000     0.816000000     1.340000000
C     1.338000000     0.267000000     1.205000000
H     1.590000000     0.342000000     2.260000000
C     2.356000000    -0.152000000     0.396000000
C     3.772000000    -0.190000000     1.024000000
O     4.060000000     0.561000000     1.974000000
O     4.572000000    -1.057000000     0.674000000
O     9.816000000     2.168000000     3.910000000
H     9.509000000     2.510000000     3.070000000
H     9.452000000     1.284000000     3.956000000
O     6.386000000     2.852000000     5.971000000
H     5.875000000     3.541000000     6.397000000
H     7.258000000     2.929000000     6.357000000
O     7.008000000    -2.893000000     4.713000000
H     7.830000000    -2.774000000     5.189000000
H     6.876000000    -2.063000000     4.253000000
O     6.529000000    -2.735000000     0.566000000
H     5.835000000    -2.076000000     0.535000000
H     7.336000000    -2.229000000     0.659000000
O     6.167000000    -0.992000000     2.813000000
H     5.426000000    -0.535000000     2.415000000
H     6.192000000    -1.840000000     2.368000000
O     6.583000000    -5.395000000     1.400000000
H     6.871000000    -5.333000000     2.311000000
H     6.437000000    -4.488000000     1.133000000
O     8.134000000     4.989000000    -1.396000000
H     8.064000000     5.698000000    -2.035000000
H     7.438000000     4.378000000    -1.640000000
O     7.490000000    -1.703000000    -2.482000000
H     7.288000000    -1.324000000    -1.627000000
H     8.430000000    -1.560000000    -2.591000000
O     6.458000000     2.881000000     3.294000000
H     5.554000000     3.035000000     3.019000000
H     6.401000000     2.753000000     4.241000000
O     7.023000000     2.628000000     0.597000000
H     6.309000000     3.098000000     0.165000000
H     6.834000000     2.712000000     1.531000000
O     6.648000000    -5.763000000    -1.419000000
H     6.185000000    -6.011000000    -0.619000000
H     6.638000000    -4.805000000    -1.414000000
O     8.761000000    -0.466000000     3.496000000
H     7.838000000    -0.485000000     3.243000000
H     9.215000000    -0.913000000     2.781000000
O     7.583000000     1.319000000    -3.039000000
H     7.427000000     1.100000000    -2.120000000
H     7.282000000     0.549000000    -3.522000000
O     6.051000000     0.100000000     5.476000000
H     6.389000000     0.990000000     5.573000000
H     5.858000000     0.016000000     4.542000000
O     6.793000000    -0.098000000    -0.331000000
H     6.926000000     0.757000000     0.077000000
H     5.924000000    -0.371000000    -0.039000000
O     9.654000000     3.513000000     1.544000000
H     8.970000000     3.481000000     0.875000000
H    10.457000000     3.701000000     1.058000000
O     9.470000000    -1.512000000     0.838000000
H     9.427000000    -1.064000000    -0.006000000
H    10.097000000    -2.223000000     0.701000000
O     6.230000000     3.500000000    -2.457000000
H     6.501000000     2.583000000    -2.418000000
H     6.001000000     3.643000000    -3.376000000
O     4.322000000     3.068000000     1.489000000
H     3.505000000     3.543000000     1.338000000
H     4.052000000     2.157000000     1.601000000
