215
-1463.14268
C     1.768000000    -2.438000000     3.359000000
H     1.294000000    -3.281000000     2.863000000
C     0.907000000    -1.575000000     3.982000000
C     1.446000000    -0.535000000     4.729000000
H     0.776000000     0.247000000     5.077000000
C    -0.544000000    -1.538000000     3.656000000
O    -1.207000000    -2.752000000     3.652000000
H    -0.567000000    -1.074000000     2.659000000
O    -1.271000000    -0.649000000     4.534000000
C    -2.266000000     0.222000000     4.066000000
C    -1.892000000     1.559000000     3.934000000
H    -0.989000000     1.999000000     4.351000000
C    -2.680000000     2.464000000     3.265000000
O    -2.120000000     3.705000000     3.137000000
C    -3.760000000     2.009000000     2.597000000
C    -4.532000000     2.871000000     1.570000000
H    -5.535000000     2.441000000     1.566000000
C    -3.942000000     2.871000000     0.197000000
C    -4.485000000     2.070000000    -0.867000000
H    -5.413000000     1.518000000    -0.740000000
H    -4.519000000     3.892000000     1.960000000
C    -4.188000000     0.693000000     2.686000000
H    -5.093000000     0.360000000     2.184000000
C    -3.484000000    -0.221000000     3.485000000
C    -3.842000000    -1.686000000     3.656000000
H    -4.922000000    -1.795000000     3.537000000
H    -3.547000000    -2.013000000     4.655000000
C    -3.224000000    -2.439000000     2.487000000
C    -3.962000000    -2.666000000     1.337000000
H    -4.976000000    -2.278000000     1.382000000
C    -1.961000000    -2.974000000     2.542000000
C    -1.479000000    -3.832000000     1.573000000
H    -0.564000000    -4.400000000     1.724000000
C    -2.203000000    -3.917000000     0.357000000
O    -1.680000000    -4.717000000    -0.589000000
C    -0.888000000    -3.968000000    -1.646000000
C     0.448000000    -4.636000000    -2.006000000
C     0.937000000    -4.602000000    -3.315000000
H     0.322000000    -4.059000000    -4.028000000
C     1.096000000    -5.411000000    -1.045000000
H     0.552000000    -5.685000000    -0.145000000
O    -1.760000000    -3.873000000    -2.824000000
H    -0.738000000    -2.966000000    -1.219000000
C    -3.427000000    -3.250000000     0.188000000
C    -4.197000000    -3.406000000    -1.173000000
H    -5.238000000    -3.163000000    -0.953000000
H    -4.200000000    -4.458000000    -1.465000000
C    -3.702000000    -2.459000000    -2.263000000
C    -4.369000000    -1.212000000    -2.336000000
H    -5.229000000    -0.881000000    -1.760000000
C    -2.541000000    -2.709000000    -2.991000000
C    -2.054000000    -1.713000000    -3.869000000
H    -1.029000000    -1.787000000    -4.223000000
C    -2.652000000    -0.448000000    -3.964000000
O    -2.011000000     0.617000000    -4.595000000
C    -1.255000000     1.581000000    -3.718000000
C     0.238000000     1.659000000    -4.189000000
C     0.779000000     0.684000000    -5.028000000
H     0.235000000    -0.208000000    -5.329000000
C     1.008000000     2.658000000    -3.654000000
H     0.556000000     3.448000000    -3.060000000
O    -1.888000000     2.830000000    -3.457000000
H    -1.227000000     1.096000000    -2.731000000
C    -3.803000000    -0.235000000    -3.143000000
C    -4.381000000     1.173000000    -3.221000000
H    -5.468000000     1.072000000    -3.241000000
H    -4.183000000     1.673000000    -4.171000000
C    -3.821000000     2.057000000    -2.136000000
C    -2.671000000     2.847000000    -2.300000000
C    -2.135000000     3.595000000    -1.211000000
H    -1.174000000     4.074000000    -1.379000000
C    -2.742000000     3.614000000     0.005000000
O    -2.152000000     4.484000000     0.936000000
C    -1.340000000     3.962000000     2.008000000
H    -0.807000000     3.028000000     1.776000000
C    -0.110000000     4.862000000     2.256000000
C     0.474000000     4.889000000     3.535000000
H    -0.024000000     4.482000000     4.411000000
C     0.528000000     5.463000000     1.197000000
H     0.142000000     5.507000000     0.182000000
C     1.822000000     5.992000000     1.320000000
O     2.395000000     6.623000000     0.285000000
C     2.471000000     5.850000000     2.588000000
H     3.460000000     6.293000000     2.671000000
C     1.774000000     5.436000000     3.702000000
O     2.412000000     5.363000000     4.958000000
C     2.262000000     4.198000000     5.708000000
C     2.936000000     3.109000000     5.212000000
H     3.573000000     3.176000000     4.334000000
C     1.554000000     4.200000000     6.879000000
H     1.082000000     5.110000000     7.240000000
C     1.383000000     2.966000000     7.523000000
H     0.992000000     2.884000000     8.534000000
C     1.920000000     1.757000000     6.997000000
H     1.965000000     0.829000000     7.561000000
C     2.760000000     1.860000000     5.886000000
O     3.420000000     0.745000000     5.398000000
C     2.823000000    -0.343000000     4.799000000
C     3.681000000    -1.272000000     4.197000000
H     4.745000000    -1.067000000     4.117000000
C     3.155000000    -2.348000000     3.542000000
O     3.957000000    -3.265000000     2.759000000
C     3.627000000    -4.610000000     2.470000000
C     3.382000000    -5.049000000     1.173000000
H     3.536000000    -4.374000000     0.335000000
C     3.633000000    -5.609000000     3.444000000
H     3.797000000    -5.329000000     4.482000000
C     3.387000000    -6.937000000     3.126000000
H     3.375000000    -7.728000000     3.871000000
C     3.283000000    -7.339000000     1.811000000
H     3.118000000    -8.370000000     1.510000000
C     3.259000000    -6.385000000     0.831000000
O     3.043000000    -6.749000000    -0.460000000
C     2.344000000    -5.954000000    -1.380000000
C     2.997000000    -5.676000000    -2.625000000
H     4.005000000    -6.036000000    -2.813000000
C     2.226000000    -5.122000000    -3.609000000
O     2.725000000    -4.841000000    -4.888000000
C     2.243000000    -3.826000000    -5.644000000
C     2.480000000    -2.468000000    -5.383000000
H     3.185000000    -2.285000000    -4.577000000
C     1.615000000    -4.117000000    -6.859000000
H     1.327000000    -5.124000000    -7.151000000
C     1.237000000    -3.110000000    -7.768000000
H     0.714000000    -3.346000000    -8.691000000
C     1.647000000    -1.785000000    -7.542000000
H     1.332000000    -1.051000000    -8.279000000
C     2.162000000    -1.472000000    -6.342000000
O     2.742000000    -0.210000000    -6.216000000
C     2.137000000     0.767000000    -5.359000000
C     2.899000000     1.897000000    -4.875000000
H     3.924000000     2.046000000    -5.206000000
C     2.337000000     2.825000000    -4.046000000
O     3.076000000     3.902000000    -3.497000000
C     2.435000000     4.969000000    -2.926000000
C     1.593000000     5.793000000    -3.697000000
H     1.384000000     5.533000000    -4.731000000
C     1.073000000     7.002000000    -3.138000000
H     0.373000000     7.586000000    -3.730000000
C     1.355000000     7.364000000    -1.814000000
H     0.911000000     8.301000000    -1.487000000
C     2.077000000     6.478000000    -1.067000000
C     2.658000000     5.326000000    -1.610000000
H     3.365000000     4.707000000    -1.063000000
C     1.901000000    -0.089000000    -0.666000000
H     2.757000000    -0.518000000    -1.181000000
C     0.620000000    -0.616000000    -0.797000000
H     0.465000000    -1.378000000    -1.556000000
C    -0.440000000    -0.170000000     0.051000000
H    -1.479000000    -0.313000000    -0.187000000
C    -0.196000000     0.754000000     0.997000000
H    -1.079000000     1.126000000     1.509000000
C     1.123000000     1.173000000     1.297000000
H     1.311000000     1.899000000     2.083000000
C     2.187000000     0.767000000     0.455000000
C     3.609000000     1.157000000     0.768000000
O     3.819000000     2.008000000     1.639000000
O     4.543000000     0.622000000     0.124000000
O     6.423000000     7.070000000    -1.422000000
H     6.441000000     6.232000000    -1.883000000
H     6.365000000     7.725000000    -2.118000000
O     5.210000000    -1.902000000     0.620000000
H     5.519000000    -1.542000000     1.451000000
H     4.899000000    -1.140000000     0.130000000
O     5.710000000     1.453000000     3.421000000
H     4.943000000     1.538000000     2.855000000
H     6.304000000     0.881000000     2.935000000
O     6.879000000    -4.361000000     0.320000000
H     7.198000000    -4.587000000     1.194000000
H     6.174000000    -3.733000000     0.478000000
O     7.970000000     1.926000000    -1.508000000
H     7.041000000     2.153000000    -1.551000000
H     8.257000000     2.252000000    -0.656000000
O     9.103000000    -2.207000000    -0.514000000
H     8.683000000    -3.030000000    -0.265000000
H     8.465000000    -1.774000000    -1.081000000
O     3.106000000    -3.066000000     6.710000000
H     3.295000000    -2.915000000     5.784000000
H     3.809000000    -2.613000000     7.175000000
O     8.068000000    -0.305000000    -3.076000000
H     7.955000000     0.431000000    -2.475000000
H     7.185000000    -0.492000000    -3.395000000
O     5.990000000     4.319000000     4.490000000
H     5.633000000     3.476000000     4.770000000
H     5.864000000     4.329000000     3.541000000
O     5.255000000     2.310000000    -1.781000000
H     4.408000000     2.570000000    -2.143000000
H     5.047000000     1.608000000    -1.165000000
O     8.900000000     1.386000000     5.355000000
H     9.385000000     2.027000000     5.875000000
H     8.759000000     1.819000000     4.512000000
O     6.421000000     0.861000000     6.508000000
H     7.357000000     0.862000000     6.305000000
H     6.010000000     1.259000000     5.741000000
O     5.842000000    -0.662000000    -4.733000000
H     4.997000000    -0.439000000    -5.124000000
H     5.762000000    -1.587000000    -4.501000000
O     7.177000000     0.690000000     0.993000000
H     6.329000000     0.627000000     0.554000000
H     7.461000000     1.591000000     0.838000000
O     7.637000000     3.630000000     0.610000000
H     6.759000000     3.812000000     0.944000000
H     7.920000000     4.455000000     0.217000000
O     9.432000000     2.774000000     2.882000000
H     8.839000000     3.422000000     2.502000000
H    10.044000000     2.566000000     2.176000000
O     9.455000000    -0.783000000     1.524000000
H     8.646000000    -0.287000000     1.397000000
H     9.453000000    -1.428000000     0.817000000
O     5.994000000     5.200000000    -3.108000000
H     6.295000000     4.292000000    -3.143000000
H     5.225000000     5.219000000    -3.678000000
O     5.230000000     4.285000000     1.774000000
H     4.694000000     4.942000000     1.329000000
H     4.716000000     3.479000000     1.718000000
