215
-1458.05509
C     1.268000000    -2.217000000     4.071000000
H     0.908000000    -3.191000000     3.749000000
C     0.477000000    -1.060000000     4.138000000
C     1.110000000     0.090000000     4.503000000
H     0.482000000     0.977000000     4.511000000
C    -0.978000000    -0.996000000     3.638000000
O    -1.562000000    -2.296000000     3.664000000
H    -0.917000000    -0.726000000     2.573000000
O    -1.742000000    -0.116000000     4.400000000
C    -2.571000000     0.678000000     3.668000000
C    -2.227000000     2.016000000     3.576000000
H    -1.330000000     2.427000000     4.032000000
C    -2.953000000     2.819000000     2.653000000
O    -2.394000000     4.061000000     2.372000000
C    -4.094000000     2.467000000     1.910000000
C    -4.547000000     3.392000000     0.780000000
H    -5.609000000     3.164000000     0.673000000
C    -3.759000000     3.063000000    -0.503000000
C    -4.198000000     2.180000000    -1.504000000
H    -5.183000000     1.750000000    -1.337000000
H    -4.461000000     4.445000000     1.057000000
C    -4.503000000     1.128000000     2.143000000
H    -5.388000000     0.806000000     1.599000000
C    -3.765000000     0.245000000     2.954000000
C    -4.208000000    -1.158000000     3.230000000
H    -5.288000000    -1.265000000     3.112000000
H    -3.994000000    -1.455000000     4.259000000
C    -3.535000000    -2.124000000     2.268000000
C    -4.199000000    -2.381000000     1.048000000
H    -5.132000000    -1.908000000     0.751000000
C    -2.271000000    -2.687000000     2.566000000
C    -1.672000000    -3.587000000     1.720000000
H    -0.703000000    -4.023000000     1.949000000
C    -2.344000000    -3.828000000     0.512000000
O    -1.736000000    -4.688000000    -0.418000000
C    -0.928000000    -4.086000000    -1.408000000
C     0.404000000    -4.775000000    -1.525000000
C     0.806000000    -5.092000000    -2.818000000
H     0.195000000    -4.981000000    -3.710000000
C     1.306000000    -5.012000000    -0.490000000
H     1.062000000    -4.677000000     0.514000000
O    -1.581000000    -4.053000000    -2.674000000
H    -0.716000000    -3.041000000    -1.139000000
C    -3.520000000    -3.209000000     0.116000000
C    -4.230000000    -3.522000000    -1.223000000
H    -5.307000000    -3.348000000    -1.277000000
H    -4.056000000    -4.577000000    -1.445000000
C    -3.584000000    -2.613000000    -2.287000000
C    -4.142000000    -1.330000000    -2.619000000
H    -4.985000000    -0.914000000    -2.073000000
C    -2.370000000    -2.951000000    -2.942000000
C    -1.777000000    -2.064000000    -3.734000000
H    -0.834000000    -2.337000000    -4.202000000
C    -2.344000000    -0.831000000    -4.071000000
O    -1.740000000     0.126000000    -4.823000000
C    -0.868000000     1.035000000    -4.004000000
C     0.591000000     1.079000000    -4.329000000
C     1.316000000     0.076000000    -5.003000000
H     0.844000000    -0.809000000    -5.420000000
C     1.387000000     2.098000000    -3.737000000
H     0.937000000     2.857000000    -3.102000000
O    -1.495000000     2.310000000    -3.947000000
H    -0.720000000     0.629000000    -2.993000000
C    -3.514000000    -0.493000000    -3.486000000
C    -4.071000000     0.894000000    -3.657000000
H    -5.159000000     0.810000000    -3.617000000
H    -3.808000000     1.316000000    -4.629000000
C    -3.490000000     1.909000000    -2.653000000
C    -2.244000000     2.499000000    -2.858000000
C    -1.730000000     3.383000000    -1.836000000
H    -0.882000000     4.003000000    -2.116000000
C    -2.481000000     3.640000000    -0.736000000
O    -1.909000000     4.552000000     0.054000000
C    -1.317000000     4.026000000     1.351000000
H    -0.849000000     3.031000000     1.334000000
C    -0.090000000     4.799000000     1.724000000
C     0.224000000     4.985000000     3.088000000
H    -0.417000000     4.627000000     3.889000000
C     0.687000000     5.405000000     0.738000000
H     0.549000000     5.093000000    -0.294000000
C     1.788000000     6.180000000     1.043000000
O     2.696000000     6.542000000     0.058000000
C     2.076000000     6.425000000     2.415000000
H     2.988000000     6.900000000     2.766000000
C     1.349000000     5.782000000     3.404000000
O     1.656000000     5.854000000     4.711000000
C     1.628000000     4.684000000     5.532000000
C     2.378000000     3.629000000     5.177000000
H     3.053000000     3.660000000     4.326000000
C     0.772000000     4.621000000     6.649000000
H     0.193000000     5.528000000     6.799000000
C     0.721000000     3.475000000     7.456000000
H    -0.042000000     3.473000000     8.230000000
C     1.475000000     2.344000000     7.097000000
H     1.606000000     1.488000000     7.754000000
C     2.272000000     2.430000000     5.884000000
O     2.945000000     1.312000000     5.537000000
C     2.377000000     0.165000000     5.008000000
C     3.207000000    -0.944000000     4.896000000
H     4.244000000    -0.819000000     5.197000000
C     2.640000000    -2.120000000     4.388000000
O     3.380000000    -3.318000000     4.538000000
C     3.191000000    -4.440000000     3.734000000
C     3.350000000    -4.476000000     2.392000000
H     3.416000000    -3.551000000     1.824000000
C     2.718000000    -5.609000000     4.313000000
H     2.644000000    -5.516000000     5.394000000
C     2.573000000    -6.796000000     3.615000000
H     2.219000000    -7.700000000     4.104000000
C     2.914000000    -6.833000000     2.263000000
H     2.888000000    -7.775000000     1.722000000
C     3.225000000    -5.644000000     1.668000000
O     3.521000000    -5.682000000     0.310000000
C     2.641000000    -5.452000000    -0.733000000
C     3.034000000    -5.747000000    -2.049000000
H     4.055000000    -6.055000000    -2.263000000
C     2.117000000    -5.523000000    -3.090000000
O     2.580000000    -5.680000000    -4.398000000
C     2.493000000    -4.551000000    -5.262000000
C     3.098000000    -3.277000000    -4.959000000
H     3.528000000    -3.053000000    -3.986000000
C     1.873000000    -4.737000000    -6.512000000
H     1.437000000    -5.693000000    -6.793000000
C     1.700000000    -3.676000000    -7.383000000
H     1.193000000    -3.877000000    -8.323000000
C     2.387000000    -2.479000000    -7.147000000
H     2.345000000    -1.593000000    -7.774000000
C     2.987000000    -2.254000000    -5.917000000
O     3.454000000    -1.001000000    -5.592000000
C     2.742000000     0.062000000    -5.091000000
C     3.443000000     1.095000000    -4.497000000
H     4.528000000     1.147000000    -4.545000000
C     2.744000000     2.094000000    -3.817000000
O     3.421000000     3.081000000    -3.150000000
C     2.867000000     4.281000000    -2.835000000
C     2.339000000     5.093000000    -3.858000000
H     2.317000000     4.821000000    -4.911000000
C     1.944000000     6.406000000    -3.522000000
H     1.506000000     7.122000000    -4.213000000
C     2.066000000     6.877000000    -2.196000000
H     1.742000000     7.896000000    -2.003000000
C     2.634000000     6.040000000    -1.229000000
C     3.036000000     4.772000000    -1.577000000
H     3.487000000     4.152000000    -0.806000000
C     2.011000000    -0.518000000    -1.022000000
H     2.909000000    -0.849000000    -1.538000000
C     0.787000000    -1.026000000    -1.468000000
H     0.729000000    -1.746000000    -2.280000000
C    -0.384000000    -0.556000000    -0.985000000
H    -1.363000000    -0.789000000    -1.323000000
C    -0.397000000     0.343000000     0.113000000
H    -1.373000000     0.646000000     0.483000000
C     0.813000000     0.877000000     0.460000000
H     0.837000000     1.589000000     1.280000000
C     2.046000000     0.549000000    -0.117000000
C     3.411000000     1.058000000     0.342000000
O     3.511000000     2.150000000     0.826000000
O     4.453000000     0.387000000     0.236000000
O     5.441000000     6.606000000     0.203000000
H     4.579000000     6.932000000    -0.057000000
H     5.256000000     5.820000000     0.716000000
O     5.452000000     4.651000000     5.296000000
H     5.099000000     5.537000000     5.380000000
H     5.673000000     4.395000000     6.191000000
O     9.170000000    -1.407000000     5.200000000
H    10.010000000    -0.961000000     5.087000000
H     8.610000000    -1.040000000     4.517000000
O     5.333000000    -2.156000000     0.719000000
H     5.017000000    -1.369000000     0.274000000
H     5.827000000    -1.824000000     1.469000000
O     5.190000000     1.063000000     3.095000000
H     5.135000000     0.927000000     2.149000000
H     4.279000000     1.065000000     3.389000000
O     6.566000000    -5.019000000     0.982000000
H     6.614000000    -5.105000000     1.934000000
H     5.932000000    -4.316000000     0.837000000
O     9.440000000     2.520000000    -2.304000000
H     8.642000000     2.283000000    -1.832000000
H     9.191000000     2.485000000    -3.228000000
O     7.900000000    -2.554000000    -2.054000000
H     7.309000000    -1.820000000    -1.887000000
H     8.729000000    -2.142000000    -2.299000000
O     7.691000000     3.496000000     3.443000000
H     7.864000000     2.589000000     3.695000000
H     6.806000000     3.669000000     3.764000000
O     6.902000000     2.573000000    -0.843000000
H     6.170000000     2.827000000    -0.281000000
H     7.621000000     3.144000000    -0.572000000
O     6.559000000    -5.049000000    -1.844000000
H     6.780000000    -4.972000000    -0.916000000
H     6.523000000    -4.146000000    -2.158000000
O     7.658000000     6.547000000    -1.719000000
H     7.003000000     6.670000000    -1.031000000
H     7.639000000     5.609000000    -1.904000000
O     7.774000000     0.502000000     3.307000000
H     6.894000000     0.874000000     3.371000000
H     7.712000000    -0.139000000     2.599000000
O     6.639000000    -0.141000000    -1.455000000
H     6.981000000     0.747000000    -1.353000000
H     5.944000000    -0.206000000    -0.799000000
O     8.752000000     4.067000000     1.098000000
H     8.093000000     4.151000000     1.787000000
H     9.360000000     3.405000000     1.427000000
O    10.501000000     2.330000000     2.322000000
H     9.900000000     1.625000000     2.562000000
H    11.219000000     1.888000000     1.868000000
O     8.682000000    -0.836000000     0.843000000
H     8.227000000    -0.758000000     0.005000000
H     9.563000000    -1.132000000     0.611000000
O     6.889000000     4.176000000    -3.164000000
H     6.694000000     3.441000000    -2.582000000
H     6.911000000     3.789000000    -4.039000000
O     5.117000000     3.888000000     1.509000000
H     5.272000000     3.539000000     2.387000000
H     4.467000000     3.298000000     1.128000000
