215
-1447.87417
C     0.718000000    -1.185000000     5.097000000
H     0.293000000    -2.183000000     5.031000000
C    -0.037000000    -0.060000000     4.737000000
C     0.427000000     1.223000000     5.056000000
H    -0.157000000     2.094000000     4.771000000
C    -1.411000000    -0.186000000     3.996000000
O    -1.959000000    -1.478000000     4.195000000
H    -1.260000000     0.018000000     2.926000000
O    -2.351000000     0.799000000     4.433000000
C    -2.978000000     1.476000000     3.368000000
C    -2.483000000     2.716000000     2.845000000
H    -1.592000000     3.113000000     3.323000000
C    -2.932000000     3.212000000     1.666000000
O    -2.353000000     4.266000000     1.028000000
C    -3.980000000     2.567000000     0.942000000
C    -4.674000000     3.169000000    -0.241000000
H    -5.731000000     2.907000000    -0.323000000
C    -3.906000000     2.741000000    -1.460000000
C    -4.280000000     1.582000000    -2.209000000
H    -5.164000000     0.994000000    -1.974000000
H    -4.624000000     4.259000000    -0.209000000
C    -4.600000000     1.453000000     1.546000000
H    -5.411000000     1.008000000     0.975000000
C    -4.065000000     0.823000000     2.682000000
C    -4.552000000    -0.562000000     3.215000000
H    -5.501000000    -0.717000000     2.698000000
H    -4.717000000    -0.720000000     4.283000000
C    -3.780000000    -1.775000000     2.654000000
C    -4.151000000    -2.310000000     1.414000000
H    -5.045000000    -1.893000000     0.958000000
C    -2.552000000    -2.169000000     3.142000000
C    -1.766000000    -3.214000000     2.568000000
H    -0.849000000    -3.632000000     2.974000000
C    -2.241000000    -3.761000000     1.348000000
O    -1.425000000    -4.703000000     0.813000000
C    -0.585000000    -4.190000000    -0.272000000
C     0.881000000    -4.614000000    -0.160000000
C     1.695000000    -4.738000000    -1.263000000
H     1.318000000    -4.758000000    -2.283000000
C     1.404000000    -4.892000000     1.079000000
H     0.727000000    -4.710000000     1.910000000
O    -1.190000000    -4.536000000    -1.579000000
H    -0.531000000    -3.095000000    -0.177000000
C    -3.436000000    -3.286000000     0.770000000
C    -3.878000000    -3.812000000    -0.594000000
H    -4.942000000    -3.859000000    -0.834000000
H    -3.609000000    -4.870000000    -0.565000000
C    -3.177000000    -3.161000000    -1.763000000
C    -3.848000000    -2.133000000    -2.405000000
H    -4.899000000    -2.008000000    -2.158000000
C    -1.948000000    -3.573000000    -2.196000000
C    -1.332000000    -2.926000000    -3.261000000
H    -0.409000000    -3.329000000    -3.669000000
C    -1.942000000    -1.763000000    -3.782000000
O    -1.270000000    -0.909000000    -4.675000000
C    -0.653000000     0.252000000    -4.272000000
C     0.716000000     0.293000000    -5.080000000
C     1.487000000    -0.883000000    -5.211000000
H     1.096000000    -1.866000000    -4.962000000
C     1.310000000     1.542000000    -5.332000000
H     0.883000000     2.509000000    -5.081000000
O    -1.456000000     1.377000000    -4.608000000
H    -0.374000000     0.253000000    -3.208000000
C    -3.256000000    -1.437000000    -3.404000000
C    -3.971000000    -0.174000000    -4.009000000
H    -5.052000000    -0.287000000    -3.907000000
H    -3.721000000    -0.139000000    -5.072000000
C    -3.574000000     1.131000000    -3.354000000
C    -2.429000000     1.817000000    -3.686000000
C    -2.065000000     2.921000000    -2.912000000
H    -1.153000000     3.469000000    -3.135000000
C    -2.771000000     3.430000000    -1.889000000
O    -2.106000000     4.374000000    -1.212000000
C    -1.449000000     4.002000000     0.014000000
H    -1.234000000     2.927000000    -0.081000000
C    -0.052000000     4.588000000     0.215000000
C     0.338000000     5.082000000     1.458000000
H    -0.384000000     5.177000000     2.264000000
C     0.909000000     4.384000000    -0.807000000
H     0.637000000     3.862000000    -1.721000000
C     2.168000000     4.864000000    -0.625000000
O     3.139000000     4.725000000    -1.616000000
C     2.547000000     5.476000000     0.575000000
H     3.581000000     5.766000000     0.744000000
C     1.630000000     5.569000000     1.557000000
O     2.007000000     6.146000000     2.809000000
C     1.646000000     5.593000000     4.008000000
C     1.889000000     4.260000000     4.313000000
H     2.336000000     3.524000000     3.649000000
C     1.189000000     6.435000000     5.084000000
H     0.934000000     7.457000000     4.816000000
C     0.904000000     5.891000000     6.297000000
H     0.647000000     6.588000000     7.090000000
C     1.165000000     4.572000000     6.570000000
H     1.051000000     4.126000000     7.555000000
C     1.642000000     3.731000000     5.575000000
O     2.137000000     2.523000000     5.973000000
C     1.673000000     1.331000000     5.665000000
C     2.468000000     0.206000000     5.918000000
H     3.412000000     0.338000000     6.442000000
C     1.979000000    -1.088000000     5.704000000
O     2.732000000    -2.235000000     6.094000000
C     2.403000000    -3.433000000     5.484000000
C     2.890000000    -3.856000000     4.254000000
H     3.510000000    -3.182000000     3.669000000
C     1.691000000    -4.341000000     6.308000000
H     1.217000000    -4.067000000     7.247000000
C     1.439000000    -5.606000000     5.841000000
H     0.950000000    -6.275000000     6.544000000
C     1.869000000    -5.978000000     4.623000000
H     1.703000000    -6.972000000     4.215000000
C     2.663000000    -5.175000000     3.818000000
O     3.169000000    -5.557000000     2.599000000
C     2.741000000    -5.123000000     1.335000000
C     3.550000000    -5.132000000     0.216000000
H     4.632000000    -5.161000000     0.308000000
C     3.069000000    -4.943000000    -1.113000000
O     4.037000000    -4.738000000    -2.094000000
C     3.570000000    -4.593000000    -3.440000000
C     3.676000000    -3.387000000    -4.158000000
H     4.157000000    -2.571000000    -3.625000000
C     3.068000000    -5.694000000    -4.171000000
H     3.193000000    -6.668000000    -3.706000000
C     2.382000000    -5.555000000    -5.377000000
H     1.833000000    -6.342000000    -5.888000000
C     2.631000000    -4.372000000    -6.013000000
H     2.321000000    -4.132000000    -7.027000000
C     3.279000000    -3.260000000    -5.448000000
O     3.443000000    -2.036000000    -6.114000000
C     2.740000000    -0.820000000    -5.783000000
C     3.359000000     0.375000000    -5.973000000
H     4.388000000     0.396000000    -6.322000000
C     2.601000000     1.537000000    -5.825000000
O     3.250000000     2.763000000    -5.991000000
C     2.945000000     3.766000000    -5.131000000
C     2.503000000     5.011000000    -5.697000000
H     2.320000000     5.060000000    -6.768000000
C     2.192000000     6.050000000    -4.852000000
H     1.753000000     6.970000000    -5.230000000
C     2.404000000     5.952000000    -3.452000000
H     2.093000000     6.751000000    -2.784000000
C     2.938000000     4.782000000    -2.937000000
C     3.224000000     3.695000000    -3.772000000
H     3.645000000     2.786000000    -3.348000000
C     2.789000000    -1.628000000    -0.231000000
H     3.441000000    -2.349000000    -0.718000000
C     1.644000000    -1.223000000    -0.942000000
H     1.460000000    -1.627000000    -1.934000000
C     0.730000000    -0.318000000    -0.339000000
H    -0.094000000     0.059000000    -0.855000000
C     0.990000000     0.175000000     0.968000000
H     0.279000000     0.870000000     1.408000000
C     2.105000000    -0.279000000     1.683000000
H     2.286000000     0.191000000     2.646000000
C     3.059000000    -1.164000000     1.132000000
C     4.327000000    -1.501000000     1.766000000
O     4.693000000    -0.810000000     2.653000000
O     4.934000000    -2.477000000     1.326000000
O     9.942000000    -1.407000000     2.716000000
H     9.107000000    -1.167000000     2.314000000
H     9.744000000    -2.188000000     3.233000000
O     5.910000000     4.383000000     2.704000000
H     6.866000000     4.331000000     2.673000000
H     5.613000000     3.636000000     2.185000000
O     8.358000000     2.406000000     0.509000000
H     7.579000000     2.139000000     0.020000000
H     8.379000000     3.359000000     0.423000000
O     5.426000000    -3.474000000     5.562000000
H     4.496000000    -3.328000000     5.733000000
H     5.756000000    -3.880000000     6.364000000
O     5.566000000    -6.885000000     3.028000000
H     4.799000000    -7.448000000     2.923000000
H     5.213000000    -5.995000000     3.024000000
O     8.728000000    -3.276000000     4.566000000
H     9.390000000    -3.832000000     4.154000000
H     7.950000000    -3.388000000     4.020000000
O     6.091000000    -2.510000000    -1.107000000
H     5.694000000    -2.540000000    -0.236000000
H     5.661000000    -3.215000000    -1.590000000
O     4.457000000     1.913000000     2.839000000
H     4.326000000     0.981000000     2.662000000
H     4.259000000     2.010000000     3.771000000
O     7.907000000    -5.069000000    -1.412000000
H     7.801000000    -4.667000000    -0.550000000
H     7.097000000    -5.561000000    -1.548000000
O     6.332000000     0.835000000    -0.652000000
H     6.143000000     0.688000000    -1.579000000
H     5.746000000     1.549000000    -0.399000000
O    10.199000000    -4.584000000     2.715000000
H     9.379000000    -4.515000000     2.227000000
H    10.870000000    -4.693000000     2.041000000
O     8.015000000    -3.794000000     1.459000000
H     7.257000000    -4.159000000     1.915000000
H     7.845000000    -2.852000000     1.428000000
O     7.495000000    -1.059000000     1.523000000
H     7.546000000    -0.144000000     1.247000000
H     6.559000000    -1.223000000     1.635000000
O     5.953000000     1.089000000     7.148000000
H     5.767000000     0.492000000     6.423000000
H     6.666000000     1.641000000     6.826000000
O     8.610000000    -1.380000000    -1.535000000
H     8.784000000    -0.640000000    -0.954000000
H     7.698000000    -1.613000000    -1.361000000
O     6.105000000    -3.887000000     3.177000000
H     5.838000000    -3.804000000     4.092000000
H     5.502000000    -3.318000000     2.698000000
O     5.901000000    -0.586000000     5.096000000
H     5.978000000    -1.535000000     5.198000000
H     5.575000000    -0.466000000     4.204000000
O     6.425000000     0.854000000    -3.279000000
H     6.520000000     0.269000000    -4.031000000
H     6.968000000     1.612000000    -3.495000000
O     4.695000000     2.806000000     0.192000000
H     4.586000000     2.471000000     1.082000000
H     3.835000000     2.693000000    -0.213000000
