215
-1459.85430
C    -0.527000000    -1.933000000     4.648000000
H    -0.975000000    -2.805000000     4.178000000
C    -1.060000000    -0.623000000     4.588000000
C    -0.582000000     0.464000000     5.241000000
H    -1.020000000     1.450000000     5.108000000
C    -2.191000000    -0.430000000     3.597000000
O    -3.076000000    -1.643000000     3.574000000
H    -1.731000000    -0.400000000     2.598000000
O    -2.895000000     0.816000000     3.899000000
C    -3.227000000     1.692000000     2.899000000
C    -2.430000000     2.745000000     2.647000000
H    -1.586000000     2.884000000     3.317000000
C    -2.630000000     3.582000000     1.541000000
O    -1.595000000     4.457000000     1.281000000
C    -3.587000000     3.309000000     0.558000000
C    -3.765000000     4.178000000    -0.717000000
H    -4.804000000     4.075000000    -1.037000000
C    -2.849000000     3.683000000    -1.769000000
C    -3.319000000     2.693000000    -2.608000000
H    -4.383000000     2.471000000    -2.622000000
H    -3.507000000     5.216000000    -0.497000000
C    -4.383000000     2.178000000     0.881000000
H    -5.231000000     2.026000000     0.218000000
C    -4.241000000     1.346000000     2.014000000
C    -5.078000000     0.120000000     2.150000000
H    -6.059000000     0.295000000     1.704000000
H    -5.243000000    -0.107000000     3.205000000
C    -4.390000000    -1.154000000     1.548000000
C    -4.603000000    -1.494000000     0.236000000
H    -5.267000000    -0.847000000    -0.332000000
C    -3.462000000    -1.966000000     2.298000000
C    -2.943000000    -3.139000000     1.747000000
H    -2.253000000    -3.823000000     2.234000000
C    -3.158000000    -3.429000000     0.363000000
O    -2.360000000    -4.424000000    -0.175000000
C    -1.238000000    -3.994000000    -0.965000000
C     0.012000000    -4.836000000    -0.746000000
C     0.986000000    -5.050000000    -1.705000000
H     0.834000000    -4.705000000    -2.724000000
C     0.181000000    -5.350000000     0.509000000
H    -0.550000000    -5.046000000     1.253000000
O    -1.610000000    -4.024000000    -2.292000000
H    -0.958000000    -2.973000000    -0.665000000
C    -4.100000000    -2.627000000    -0.329000000
C    -4.451000000    -2.853000000    -1.776000000
H    -5.424000000    -2.542000000    -2.162000000
H    -4.338000000    -3.912000000    -2.015000000
C    -3.371000000    -2.200000000    -2.627000000
C    -3.596000000    -0.961000000    -3.188000000
H    -4.522000000    -0.433000000    -2.976000000
C    -2.096000000    -2.835000000    -2.893000000
C    -1.192000000    -2.203000000    -3.792000000
H    -0.223000000    -2.662000000    -3.975000000
C    -1.456000000    -0.860000000    -4.275000000
O    -0.427000000    -0.272000000    -4.955000000
C     0.298000000     0.779000000    -4.270000000
C     1.800000000     0.691000000    -4.408000000
C     2.481000000    -0.514000000    -4.135000000
H     1.907000000    -1.424000000    -3.978000000
C     2.566000000     1.826000000    -4.649000000
H     2.032000000     2.750000000    -4.853000000
O    -0.275000000     2.082000000    -4.626000000
H     0.096000000     0.705000000    -3.191000000
C    -2.643000000    -0.226000000    -3.903000000
C    -3.008000000     1.164000000    -4.561000000
H    -4.069000000     1.290000000    -4.786000000
H    -2.618000000     1.330000000    -5.567000000
C    -2.538000000     2.261000000    -3.684000000
C    -1.138000000     2.621000000    -3.749000000
C    -0.684000000     3.555000000    -2.848000000
H     0.385000000     3.737000000    -2.786000000
C    -1.515000000     4.088000000    -1.862000000
O    -0.954000000     4.780000000    -0.879000000
C    -0.642000000     3.984000000     0.271000000
H    -0.710000000     2.894000000     0.141000000
C     0.782000000     4.266000000     0.703000000
C     1.141000000     3.968000000     2.002000000
H     0.389000000     3.656000000     2.723000000
C     1.780000000     4.820000000    -0.153000000
H     1.503000000     5.159000000    -1.148000000
C     3.100000000     5.006000000     0.257000000
O     4.070000000     5.504000000    -0.670000000
C     3.360000000     4.864000000     1.653000000
H     4.348000000     5.056000000     2.064000000
C     2.373000000     4.301000000     2.481000000
O     2.776000000     4.043000000     3.808000000
C     1.990000000     3.799000000     4.897000000
C     1.839000000     2.508000000     5.425000000
H     2.272000000     1.645000000     4.925000000
C     1.484000000     4.908000000     5.584000000
H     1.681000000     5.909000000     5.207000000
C     0.716000000     4.744000000     6.751000000
H     0.301000000     5.605000000     7.270000000
C     0.487000000     3.420000000     7.190000000
H    -0.079000000     3.261000000     8.105000000
C     0.995000000     2.342000000     6.479000000
O     0.854000000     1.096000000     7.039000000
C     0.406000000     0.142000000     6.209000000
C     0.898000000    -1.155000000     6.362000000
H     1.605000000    -1.195000000     7.187000000
C     0.448000000    -2.216000000     5.558000000
O     0.913000000    -3.459000000     5.812000000
C     0.516000000    -4.587000000     5.089000000
C     1.155000000    -5.048000000     3.936000000
H     2.004000000    -4.485000000     3.556000000
C    -0.600000000    -5.303000000     5.540000000
H    -1.246000000    -4.912000000     6.322000000
C    -1.038000000    -6.395000000     4.838000000
H    -1.973000000    -6.789000000     5.229000000
C    -0.374000000    -6.815000000     3.652000000
H    -0.740000000    -7.707000000     3.150000000
C     0.725000000    -6.169000000     3.239000000
O     1.439000000    -6.570000000     2.096000000
C     1.313000000    -6.080000000     0.825000000
C     2.226000000    -6.425000000    -0.158000000
H     3.039000000    -7.093000000     0.113000000
C     2.090000000    -5.884000000    -1.419000000
O     3.054000000    -6.123000000    -2.327000000
C     3.443000000    -5.193000000    -3.285000000
C     3.849000000    -3.932000000    -2.860000000
H     3.782000000    -3.663000000    -1.809000000
C     3.517000000    -5.560000000    -4.635000000
H     3.305000000    -6.578000000    -4.953000000
C     3.814000000    -4.635000000    -5.594000000
H     3.708000000    -4.918000000    -6.638000000
C     4.180000000    -3.273000000    -5.181000000
H     4.440000000    -2.507000000    -5.908000000
C     4.209000000    -2.977000000    -3.836000000
O     4.591000000    -1.644000000    -3.540000000
C     3.869000000    -0.557000000    -4.028000000
C     4.589000000     0.601000000    -4.247000000
H     5.675000000     0.603000000    -4.219000000
C     3.971000000     1.782000000    -4.658000000
O     4.621000000     2.968000000    -4.760000000
C     4.293000000     4.110000000    -4.054000000
C     3.786000000     5.186000000    -4.751000000
H     3.605000000     5.061000000    -5.816000000
C     3.370000000     6.347000000    -4.110000000
H     2.863000000     7.158000000    -4.627000000
C     3.535000000     6.409000000    -2.740000000
H     3.169000000     7.273000000    -2.191000000
C     4.006000000     5.311000000    -2.064000000
C     4.283000000     4.127000000    -2.702000000
H     4.666000000     3.334000000    -2.064000000
C     1.710000000    -1.444000000    -0.496000000
H     2.049000000    -2.254000000    -1.136000000
C     0.535000000    -0.942000000    -1.028000000
H     0.033000000    -1.468000000    -1.835000000
C    -0.131000000    -0.003000000    -0.322000000
H    -0.983000000     0.464000000    -0.783000000
C     0.269000000     0.368000000     0.941000000
H    -0.324000000     1.078000000     1.511000000
C     1.378000000    -0.240000000     1.582000000
H     1.716000000    -0.136000000     2.610000000
C     2.184000000    -1.185000000     0.778000000
C     3.459000000    -1.838000000     1.355000000
O     3.794000000    -1.580000000     2.499000000
O     4.129000000    -2.585000000     0.631000000
O     7.469000000     0.886000000    -0.647000000
H     8.344000000     0.588000000    -0.893000000
H     6.911000000     0.117000000    -0.767000000
O     6.355000000     2.663000000     2.362000000
H     7.197000000     2.669000000     1.907000000
H     5.738000000     2.313000000     1.720000000
O     2.372000000     1.556000000    -0.955000000
H     2.430000000     1.257000000    -1.862000000
H     1.842000000     0.891000000    -0.516000000
O     7.260000000    -1.105000000     4.661000000
H     6.957000000    -1.205000000     3.759000000
H     6.524000000    -0.696000000     5.117000000
O     4.191000000    -5.851000000     2.719000000
H     3.239000000    -5.894000000     2.622000000
H     4.465000000    -6.764000000     2.804000000
O     5.041000000    -3.531000000     4.127000000
H     4.610000000    -2.832000000     3.636000000
H     4.644000000    -4.337000000     3.795000000
O     3.799000000    -0.428000000     4.860000000
H     3.898000000    -1.111000000     5.524000000
H     3.590000000    -0.903000000     4.056000000
O     6.435000000    -3.965000000     1.201000000
H     5.650000000    -3.424000000     1.291000000
H     6.711000000    -3.836000000     0.293000000
O     5.615000000     1.679000000     4.870000000
H     5.248000000     0.807000000     4.723000000
H     5.776000000     2.022000000     3.992000000
O     8.709000000    -1.662000000    -2.382000000
H     8.409000000    -1.815000000    -1.486000000
H     8.425000000    -2.438000000    -2.865000000
O     5.313000000    -0.614000000    -0.822000000
H     5.217000000    -1.013000000    -1.686000000
H     4.851000000    -1.208000000    -0.231000000
O     6.385000000    -0.853000000     1.883000000
H     6.366000000     0.089000000     1.711000000
H     5.478000000    -1.076000000     2.092000000
O     8.625000000    -1.728000000     0.224000000
H     7.941000000    -1.650000000     0.888000000
H     9.066000000    -2.552000000     0.429000000
O     4.112000000    -2.160000000     6.776000000
H     3.893000000    -2.897000000     6.205000000
H     4.248000000    -2.556000000     7.637000000
O     6.281000000    -4.828000000     7.016000000
H     6.266000000    -4.381000000     6.170000000
H     6.913000000    -5.538000000     6.901000000
O     4.631000000     1.553000000     0.675000000
H     3.700000000     1.645000000     0.476000000
H     4.952000000     0.921000000     0.031000000
O     7.475000000    -4.806000000     3.826000000
H     7.529000000    -4.796000000     2.870000000
H     6.579000000    -4.529000000     4.018000000
O     8.172000000    -5.736000000    -2.125000000
H     7.354000000    -5.750000000    -1.629000000
H     7.900000000    -5.829000000    -3.038000000
O     5.781000000    -6.014000000    -0.802000000
H     5.361000000    -5.966000000     0.056000000
H     5.090000000    -6.319000000    -1.390000000
