215
-1447.89143
C    -1.467000000    -2.225000000     4.901000000
H    -2.076000000    -2.992000000     4.430000000
C    -1.446000000    -0.887000000     4.551000000
C    -0.563000000    -0.058000000     5.280000000
H    -0.696000000     0.993000000     5.038000000
C    -2.356000000    -0.371000000     3.455000000
O    -3.514000000    -1.229000000     3.292000000
H    -1.762000000    -0.296000000     2.533000000
O    -2.846000000     1.008000000     3.785000000
C    -3.003000000     1.856000000     2.747000000
C    -2.088000000     2.943000000     2.696000000
H    -1.326000000     3.033000000     3.466000000
C    -2.047000000     3.712000000     1.555000000
O    -0.963000000     4.500000000     1.309000000
C    -3.064000000     3.671000000     0.643000000
C    -3.064000000     4.558000000    -0.600000000
H    -4.089000000     4.668000000    -0.960000000
C    -2.231000000     3.887000000    -1.688000000
C    -2.839000000     3.022000000    -2.637000000
H    -3.841000000     2.638000000    -2.467000000
H    -2.762000000     5.557000000    -0.279000000
C    -3.964000000     2.659000000     0.716000000
H    -4.633000000     2.579000000    -0.137000000
C    -4.038000000     1.764000000     1.749000000
C    -5.101000000     0.675000000     1.723000000
H    -5.963000000     1.040000000     1.160000000
H    -5.376000000     0.635000000     2.779000000
C    -4.604000000    -0.650000000     1.188000000
C    -4.810000000    -1.018000000    -0.134000000
H    -5.298000000    -0.327000000    -0.817000000
C    -3.918000000    -1.577000000     1.999000000
C    -3.478000000    -2.803000000     1.462000000
H    -2.933000000    -3.537000000     2.050000000
C    -3.767000000    -3.164000000     0.142000000
O    -3.083000000    -4.179000000    -0.433000000
C    -1.753000000    -3.812000000    -1.047000000
C    -0.611000000    -4.730000000    -0.639000000
C     0.415000000    -4.896000000    -1.522000000
H     0.275000000    -4.598000000    -2.558000000
C    -0.501000000    -5.216000000     0.649000000
H    -1.237000000    -4.888000000     1.379000000
O    -1.932000000    -3.699000000    -2.419000000
H    -1.507000000    -2.793000000    -0.714000000
C    -4.404000000    -2.246000000    -0.701000000
C    -4.483000000    -2.403000000    -2.187000000
H    -5.449000000    -2.038000000    -2.543000000
H    -4.494000000    -3.459000000    -2.465000000
C    -3.371000000    -1.812000000    -2.891000000
C    -3.562000000    -0.572000000    -3.431000000
H    -4.498000000    -0.028000000    -3.333000000
C    -2.171000000    -2.460000000    -2.998000000
C    -1.139000000    -1.893000000    -3.768000000
H    -0.279000000    -2.494000000    -4.051000000
C    -1.386000000    -0.591000000    -4.364000000
O    -0.354000000    -0.053000000    -5.092000000
C     0.405000000     0.993000000    -4.465000000
C     1.920000000     0.845000000    -4.604000000
C     2.566000000    -0.400000000    -4.424000000
H     1.883000000    -1.246000000    -4.410000000
C     2.774000000     1.911000000    -4.678000000
H     2.316000000     2.877000000    -4.875000000
O    -0.044000000     2.325000000    -4.823000000
H     0.274000000     0.827000000    -3.386000000
C    -2.591000000     0.082000000    -4.196000000
C    -2.835000000     1.502000000    -4.597000000
H    -3.915000000     1.660000000    -4.635000000
H    -2.617000000     1.731000000    -5.642000000
C    -2.103000000     2.511000000    -3.727000000
C    -0.786000000     2.924000000    -3.853000000
C    -0.155000000     3.693000000    -2.926000000
H     0.913000000     3.886000000    -2.983000000
C    -0.842000000     4.130000000    -1.850000000
O    -0.096000000     4.791000000    -0.855000000
C    -0.016000000     4.078000000     0.339000000
H    -0.145000000     3.017000000     0.076000000
C     1.419000000     4.124000000     0.870000000
C     1.703000000     3.588000000     2.176000000
H     0.903000000     3.126000000     2.748000000
C     2.464000000     4.604000000     0.026000000
H     2.314000000     4.956000000    -0.991000000
C     3.773000000     4.684000000     0.559000000
O     4.833000000     5.289000000    -0.221000000
C     4.014000000     4.236000000     1.836000000
H     5.018000000     4.224000000     2.253000000
C     3.005000000     3.671000000     2.613000000
O     3.347000000     3.101000000     3.839000000
C     2.584000000     2.990000000     4.985000000
C     2.254000000     1.738000000     5.428000000
H     2.595000000     0.829000000     4.938000000
C     2.144000000     4.128000000     5.654000000
H     2.391000000     5.158000000     5.407000000
C     1.421000000     3.961000000     6.851000000
H     1.094000000     4.773000000     7.496000000
C     1.049000000     2.678000000     7.250000000
H     0.575000000     2.455000000     8.202000000
C     1.502000000     1.611000000     6.542000000
O     1.181000000     0.346000000     6.993000000
C     0.332000000    -0.480000000     6.215000000
C     0.290000000    -1.812000000     6.569000000
H     0.926000000    -2.212000000     7.355000000
C    -0.609000000    -2.694000000     5.874000000
O    -0.498000000    -4.044000000     6.135000000
C    -0.856000000    -5.060000000     5.289000000
C    -0.093000000    -5.213000000     4.128000000
H     0.819000000    -4.624000000     4.083000000
C    -1.973000000    -5.856000000     5.535000000
H    -2.651000000    -5.739000000     6.376000000
C    -2.257000000    -6.881000000     4.597000000
H    -3.043000000    -7.619000000     4.733000000
C    -1.330000000    -7.160000000     3.509000000
H    -1.380000000    -8.051000000     2.888000000
C    -0.246000000    -6.263000000     3.285000000
O     0.660000000    -6.512000000     2.282000000
C     0.607000000    -5.949000000     1.019000000
C     1.645000000    -6.117000000     0.098000000
H     2.502000000    -6.736000000     0.351000000
C     1.535000000    -5.597000000    -1.163000000
O     2.650000000    -5.707000000    -2.020000000
C     2.919000000    -4.901000000    -3.170000000
C     3.687000000    -3.691000000    -3.003000000
H     3.846000000    -3.284000000    -2.007000000
C     2.483000000    -5.270000000    -4.405000000
H     1.931000000    -6.206000000    -4.391000000
C     2.844000000    -4.536000000    -5.554000000
H     2.591000000    -4.813000000    -6.575000000
C     3.627000000    -3.441000000    -5.402000000
H     4.070000000    -3.029000000    -6.305000000
C     3.869000000    -2.956000000    -4.122000000
O     4.549000000    -1.727000000    -4.034000000
C     3.927000000    -0.539000000    -4.293000000
C     4.731000000     0.609000000    -4.311000000
H     5.788000000     0.482000000    -4.089000000
C     4.140000000     1.850000000    -4.461000000
O     4.857000000     2.996000000    -4.482000000
C     4.614000000     4.092000000    -3.709000000
C     4.456000000     5.275000000    -4.409000000
H     4.401000000     5.294000000    -5.494000000
C     4.509000000     6.495000000    -3.693000000
H     4.560000000     7.423000000    -4.258000000
C     4.642000000     6.489000000    -2.320000000
H     4.665000000     7.381000000    -1.700000000
C     4.758000000     5.300000000    -1.597000000
C     4.670000000     4.046000000    -2.293000000
H     4.752000000     3.112000000    -1.743000000
C     1.538000000    -1.742000000     0.246000000
H     2.103000000    -2.585000000    -0.144000000
C     0.544000000    -1.167000000    -0.523000000
H     0.191000000    -1.649000000    -1.430000000
C    -0.083000000     0.007000000    -0.035000000
H    -0.827000000     0.570000000    -0.585000000
C     0.227000000     0.511000000     1.164000000
H    -0.273000000     1.334000000     1.668000000
C     1.273000000    -0.097000000     1.868000000
H     1.671000000     0.365000000     2.769000000
C     1.914000000    -1.265000000     1.424000000
C     2.977000000    -1.980000000     2.283000000
O     3.096000000    -1.816000000     3.452000000
O     3.940000000    -2.489000000     1.654000000
O     6.485000000    -7.710000000     3.412000000
H     6.642000000    -7.031000000     4.068000000
H     5.639000000    -8.086000000     3.655000000
O     7.871000000    -5.205000000     3.276000000
H     6.925000000    -5.106000000     3.170000000
H     8.239000000    -4.872000000     2.458000000
O     3.292000000     1.106000000    -0.804000000
H     2.478000000     0.647000000    -0.597000000
H     3.976000000     0.449000000    -0.681000000
O     3.840000000    -6.446000000     3.448000000
H     4.121000000    -6.239000000     4.339000000
H     3.345000000    -7.261000000     3.536000000
O     2.631000000    -3.361000000     5.454000000
H     2.515000000    -2.618000000     4.862000000
H     2.652000000    -4.125000000     4.878000000
O     5.126000000    -0.751000000     4.774000000
H     5.049000000    -1.214000000     5.609000000
H     4.385000000    -1.066000000     4.256000000
O     5.534000000    -3.962000000     0.219000000
H     4.871000000    -3.487000000     0.718000000
H     5.938000000    -3.296000000    -0.337000000
O     5.830000000     1.645000000     2.854000000
H     5.606000000     0.788000000     2.491000000
H     5.258000000     1.739000000     3.617000000
O     5.242000000    -0.761000000    -0.020000000
H     4.838000000    -1.421000000     0.545000000
H     6.153000000    -0.724000000     0.270000000
O     7.493000000    -0.966000000     3.224000000
H     6.862000000    -0.494000000     3.767000000
H     7.319000000    -1.890000000     3.403000000
O     7.971000000    -1.146000000     0.520000000
H     7.920000000    -0.719000000     1.375000000
H     7.889000000    -2.080000000     0.713000000
O     4.383000000    -1.432000000     7.660000000
H     4.079000000    -2.339000000     7.708000000
H     5.168000000    -1.413000000     8.208000000
O     5.589000000    -5.873000000     5.703000000
H     5.514000000    -6.361000000     6.523000000
H     5.915000000    -5.012000000     5.966000000
O     6.463000000    -3.280000000     6.535000000
H     6.769000000    -2.374000000     6.495000000
H     6.244000000    -3.420000000     7.456000000
O     6.009000000     2.239000000     0.149000000
H     5.192000000     1.889000000    -0.205000000
H     5.892000000     2.205000000     1.099000000
O     5.836000000    -3.379000000     3.588000000
H     5.217000000    -3.351000000     4.317000000
H     5.320000000    -3.118000000     2.825000000
O     2.279000000    -4.341000000     7.927000000
H     2.525000000    -5.251000000     7.765000000
H     2.306000000    -3.928000000     7.064000000
O     5.643000000     1.380000000     6.766000000
H     5.038000000     0.641000000     6.704000000
H     6.499000000     0.978000000     6.913000000
O     5.102000000    -6.627000000     0.443000000
H     5.435000000    -5.737000000     0.323000000
H     4.495000000    -6.558000000     1.180000000
