215
-1447.23705
C     0.491000000    -1.681000000     4.332000000
H     0.067000000    -2.531000000     3.804000000
C    -0.359000000    -0.601000000     4.475000000
C    -0.008000000     0.487000000     5.339000000
H    -0.672000000     1.328000000     5.525000000
C    -1.694000000    -0.545000000     3.781000000
O    -2.531000000    -1.690000000     3.904000000
H    -1.339000000    -0.467000000     2.743000000
O    -2.453000000     0.625000000     4.116000000
C    -2.932000000     1.417000000     3.124000000
C    -2.208000000     2.579000000     2.793000000
H    -1.314000000     2.920000000     3.309000000
C    -2.657000000     3.374000000     1.752000000
O    -1.883000000     4.504000000     1.388000000
C    -3.778000000     3.043000000     0.982000000
C    -4.228000000     3.777000000    -0.269000000
H    -5.306000000     3.667000000    -0.406000000
C    -3.404000000     3.332000000    -1.474000000
C    -3.882000000     2.283000000    -2.285000000
H    -4.755000000     1.728000000    -1.952000000
H    -4.081000000     4.845000000    -0.093000000
C    -4.544000000     1.939000000     1.364000000
H    -5.422000000     1.639000000     0.797000000
C    -4.124000000     1.052000000     2.386000000
C    -4.936000000    -0.251000000     2.796000000
H    -5.951000000    -0.252000000     2.396000000
H    -5.032000000    -0.379000000     3.877000000
C    -4.239000000    -1.448000000     2.085000000
C    -4.703000000    -1.849000000     0.849000000
H    -5.492000000    -1.262000000     0.388000000
C    -3.188000000    -2.151000000     2.745000000
C    -2.599000000    -3.179000000     2.109000000
H    -1.788000000    -3.740000000     2.566000000
C    -3.079000000    -3.622000000     0.877000000
O    -2.402000000    -4.696000000     0.274000000
C    -1.332000000    -4.389000000    -0.586000000
C    -0.051000000    -5.159000000    -0.318000000
C     0.920000000    -5.221000000    -1.355000000
H     0.793000000    -4.740000000    -2.321000000
C     0.261000000    -5.686000000     0.953000000
H    -0.438000000    -5.644000000     1.784000000
O    -1.750000000    -4.288000000    -1.972000000
H    -1.092000000    -3.391000000    -0.190000000
C    -4.093000000    -2.904000000     0.168000000
C    -4.485000000    -3.351000000    -1.280000000
H    -5.508000000    -3.025000000    -1.482000000
H    -4.403000000    -4.423000000    -1.473000000
C    -3.561000000    -2.723000000    -2.225000000
C    -3.955000000    -1.517000000    -2.832000000
H    -4.957000000    -1.174000000    -2.586000000
C    -2.248000000    -3.191000000    -2.554000000
C    -1.410000000    -2.479000000    -3.343000000
H    -0.465000000    -2.927000000    -3.639000000
C    -1.920000000    -1.331000000    -3.998000000
O    -0.925000000    -0.688000000    -4.683000000
C    -0.360000000     0.502000000    -4.118000000
C     1.121000000     0.623000000    -4.618000000
C     1.968000000    -0.503000000    -4.429000000
H     1.503000000    -1.465000000    -4.231000000
C     1.762000000     1.831000000    -4.854000000
H     1.203000000     2.753000000    -4.719000000
O    -1.034000000     1.735000000    -4.478000000
H    -0.306000000     0.411000000    -3.023000000
C    -3.143000000    -0.773000000    -3.652000000
C    -3.500000000     0.611000000    -4.187000000
H    -4.557000000     0.710000000    -4.443000000
H    -3.004000000     0.746000000    -5.151000000
C    -3.035000000     1.726000000    -3.268000000
C    -1.844000000     2.281000000    -3.552000000
C    -1.381000000     3.411000000    -2.844000000
H    -0.455000000     3.886000000    -3.161000000
C    -2.204000000     3.901000000    -1.842000000
O    -1.574000000     4.773000000    -0.979000000
C    -1.033000000     4.162000000     0.228000000
H    -1.042000000     3.081000000     0.023000000
C     0.349000000     4.677000000     0.489000000
C     1.049000000     4.174000000     1.622000000
H     0.556000000     3.584000000     2.390000000
C     1.042000000     5.365000000    -0.510000000
H     0.478000000     5.720000000    -1.369000000
C     2.405000000     5.594000000    -0.441000000
O     3.129000000     6.140000000    -1.493000000
C     3.056000000     5.295000000     0.807000000
H     4.129000000     5.377000000     0.962000000
C     2.345000000     4.631000000     1.841000000
O     3.148000000     4.111000000     2.881000000
C     2.742000000     4.044000000     4.214000000
C     2.505000000     2.782000000     4.790000000
H     2.639000000     1.858000000     4.234000000
C     2.537000000     5.213000000     4.919000000
H     2.716000000     6.160000000     4.415000000
C     2.029000000     5.108000000     6.233000000
H     1.934000000     6.025000000     6.808000000
C     1.762000000     3.867000000     6.783000000
H     1.346000000     3.842000000     7.787000000
C     1.955000000     2.694000000     6.093000000
O     1.684000000     1.499000000     6.685000000
C     1.189000000     0.431000000     6.028000000
C     2.118000000    -0.518000000     5.636000000
H     3.099000000    -0.596000000     6.098000000
C     1.728000000    -1.644000000     4.945000000
O     2.538000000    -2.781000000     4.949000000
C     2.135000000    -4.054000000     4.837000000
C     2.184000000    -4.738000000     3.687000000
H     2.644000000    -4.130000000     2.912000000
C     1.582000000    -4.689000000     5.961000000
H     1.643000000    -4.253000000     6.955000000
C     1.138000000    -5.995000000     5.839000000
H     0.818000000    -6.568000000     6.706000000
C     1.271000000    -6.693000000     4.625000000
H     0.987000000    -7.740000000     4.557000000
C     1.743000000    -6.036000000     3.532000000
O     1.896000000    -6.743000000     2.347000000
C     1.569000000    -6.264000000     1.125000000
C     2.461000000    -6.414000000     0.059000000
H     3.401000000    -6.942000000     0.194000000
C     2.155000000    -5.823000000    -1.193000000
O     3.018000000    -5.881000000    -2.236000000
C     3.073000000    -5.000000000    -3.324000000
C     3.584000000    -3.699000000    -3.112000000
H     3.920000000    -3.292000000    -2.162000000
C     2.522000000    -5.341000000    -4.571000000
H     2.125000000    -6.353000000    -4.597000000
C     2.526000000    -4.466000000    -5.612000000
H     2.077000000    -4.699000000    -6.574000000
C     3.215000000    -3.269000000    -5.474000000
H     3.269000000    -2.591000000    -6.322000000
C     3.621000000    -2.857000000    -4.224000000
O     4.145000000    -1.562000000    -4.134000000
C     3.310000000    -0.458000000    -4.374000000
C     3.972000000     0.780000000    -4.660000000
H     5.026000000     1.011000000    -4.529000000
C     3.146000000     1.866000000    -4.957000000
O     3.787000000     3.049000000    -5.105000000
C     3.357000000     4.256000000    -4.656000000
C     2.850000000     5.211000000    -5.549000000
H     2.867000000     4.958000000    -6.606000000
C     2.288000000     6.405000000    -5.011000000
H     1.830000000     7.186000000    -5.612000000
C     2.318000000     6.744000000    -3.659000000
H     1.851000000     7.631000000    -3.240000000
C     2.992000000     5.844000000    -2.838000000
C     3.523000000     4.689000000    -3.326000000
H     3.880000000     3.893000000    -2.677000000
C     2.048000000    -1.393000000    -0.217000000
H     2.613000000    -2.220000000    -0.640000000
C     0.667000000    -1.307000000    -0.473000000
H     0.123000000    -1.963000000    -1.147000000
C    -0.174000000    -0.460000000     0.323000000
H    -1.236000000    -0.326000000     0.119000000
C     0.455000000     0.412000000     1.192000000
H    -0.215000000     1.088000000     1.717000000
C     1.819000000     0.339000000     1.442000000
H     2.227000000     0.938000000     2.253000000
C     2.610000000    -0.591000000     0.757000000
C     4.094000000    -0.516000000     0.940000000
O     4.635000000     0.239000000     1.777000000
O     4.780000000    -1.322000000     0.444000000
O     7.134000000    -2.934000000    -2.353000000
H     7.416000000    -3.382000000    -3.151000000
H     7.935000000    -2.832000000    -1.840000000
O     7.074000000     3.042000000     1.578000000
H     8.010000000     2.956000000     1.396000000
H     6.645000000     2.698000000     0.794000000
O     6.069000000     5.357000000     2.530000000
H     5.501000000     4.705000000     2.940000000
H     6.825000000     4.856000000     2.223000000
O     4.319000000     2.469000000     0.560000000
H     4.364000000     1.685000000     1.108000000
H     3.652000000     3.014000000     0.977000000
O     8.925000000    -1.386000000     3.865000000
H     8.145000000    -1.434000000     3.313000000
H     8.689000000    -0.772000000     4.560000000
O    10.409000000     0.027000000     1.904000000
H    10.877000000    -0.761000000     1.628000000
H     9.626000000    -0.303000000     2.345000000
O     7.549000000     4.057000000    -3.072000000
H     8.155000000     3.333000000    -2.917000000
H     6.820000000     3.891000000    -2.474000000
O     5.983000000    -6.760000000     1.077000000
H     6.566000000    -7.392000000     0.657000000
H     5.931000000    -6.033000000     0.457000000
O     5.166000000    -2.625000000     2.949000000
H     4.932000000    -2.236000000     2.107000000
H     5.818000000    -3.291000000     2.733000000
O     5.233000000    -0.013000000     4.433000000
H     5.363000000    -0.961000000     4.461000000
H     5.109000000     0.185000000     3.505000000
O     5.989000000    -4.320000000    -0.424000000
H     5.566000000    -3.552000000    -0.039000000
H     6.326000000    -4.011000000    -1.265000000
O     8.429000000     1.170000000    -1.599000000
H     7.582000000     0.739000000    -1.488000000
H     8.622000000     1.546000000    -0.740000000
O     6.557000000     2.487000000     4.258000000
H     6.263000000     1.620000000     4.535000000
H     6.698000000     2.402000000     3.315000000
O     6.109000000    -0.256000000    -1.705000000
H     5.464000000    -0.637000000    -1.109000000
H     6.603000000    -1.006000000    -2.035000000
O     7.112000000    -0.289000000     1.844000000
H     6.228000000    -0.525000000     1.561000000
H     7.028000000     0.606000000     2.171000000
O     8.993000000    -2.117000000    -0.634000000
H     8.615000000    -1.728000000     0.154000000
H     9.676000000    -2.703000000    -0.309000000
O     7.432000000    -4.257000000     2.503000000
H     7.199000000    -5.110000000     2.135000000
H     8.336000000    -4.114000000     2.223000000
O     5.847000000     2.624000000    -1.458000000
H     5.279000000     2.577000000    -0.689000000
H     5.867000000     1.729000000    -1.797000000
O     5.213000000    -3.431000000     5.491000000
H     4.998000000    -3.160000000     4.599000000
H     4.369000000    -3.661000000     5.881000000
