215
-1411.35327
C     0.952000000    -1.260000000     4.831000000
H     0.500000000    -2.197000000     4.514000000
C     0.218000000    -0.127000000     4.758000000
C     0.804000000     1.110000000     5.081000000
H     0.303000000     2.019000000     4.757000000
C    -1.151000000    -0.143000000     4.017000000
O    -1.984000000    -1.227000000     4.487000000
H    -0.999000000    -0.341000000     2.946000000
O    -1.823000000     1.126000000     4.229000000
C    -2.491000000     1.666000000     3.179000000
C    -1.937000000     2.819000000     2.590000000
H    -0.912000000     3.126000000     2.783000000
C    -2.565000000     3.517000000     1.602000000
O    -1.827000000     4.460000000     0.983000000
C    -3.814000000     3.126000000     1.112000000
C    -4.308000000     3.602000000    -0.251000000
H    -5.329000000     3.213000000    -0.260000000
C    -3.651000000     2.979000000    -1.477000000
C    -4.202000000     1.831000000    -2.016000000
H    -5.070000000     1.347000000    -1.574000000
H    -4.168000000     4.685000000    -0.263000000
C    -4.430000000     2.012000000     1.713000000
H    -5.273000000     1.507000000     1.247000000
C    -3.726000000     1.307000000     2.670000000
C    -4.338000000     0.111000000     3.330000000
H    -5.400000000     0.052000000     3.083000000
H    -4.174000000     0.159000000     4.409000000
C    -3.810000000    -1.232000000     2.859000000
C    -4.291000000    -1.721000000     1.617000000
H    -4.984000000    -1.055000000     1.110000000
C    -2.725000000    -1.869000000     3.504000000
C    -2.078000000    -2.954000000     2.875000000
H    -1.292000000    -3.520000000     3.368000000
C    -2.636000000    -3.533000000     1.742000000
O    -1.947000000    -4.563000000     1.156000000
C    -1.003000000    -4.200000000     0.159000000
C     0.356000000    -4.974000000     0.315000000
C     1.190000000    -5.233000000    -0.788000000
H     0.897000000    -4.910000000    -1.784000000
C     0.865000000    -5.225000000     1.576000000
H     0.278000000    -5.084000000     2.480000000
O    -1.693000000    -4.510000000    -1.051000000
H    -0.838000000    -3.113000000     0.121000000
C    -3.803000000    -2.971000000     1.136000000
C    -4.382000000    -3.557000000    -0.143000000
H    -5.457000000    -3.387000000    -0.225000000
H    -4.313000000    -4.638000000    -0.006000000
C    -3.647000000    -3.040000000    -1.341000000
C    -4.157000000    -1.892000000    -1.962000000
H    -5.095000000    -1.526000000    -1.550000000
C    -2.406000000    -3.528000000    -1.715000000
C    -1.718000000    -2.910000000    -2.790000000
H    -0.794000000    -3.337000000    -3.170000000
C    -2.221000000    -1.764000000    -3.330000000
O    -1.445000000    -1.188000000    -4.324000000
C    -0.942000000     0.123000000    -4.014000000
C     0.524000000     0.270000000    -4.443000000
C     1.345000000    -0.834000000    -4.306000000
H     0.851000000    -1.669000000    -3.818000000
C     1.086000000     1.420000000    -4.955000000
H     0.450000000     2.262000000    -5.216000000
O    -1.787000000     1.128000000    -4.541000000
H    -0.951000000     0.216000000    -2.918000000
C    -3.418000000    -1.231000000    -2.969000000
C    -4.079000000    -0.060000000    -3.680000000
H    -5.136000000    -0.200000000    -3.445000000
H    -4.064000000    -0.111000000    -4.771000000
C    -3.641000000     1.284000000    -3.169000000
C    -2.449000000     1.827000000    -3.647000000
C    -1.872000000     2.924000000    -2.988000000
H    -0.944000000     3.370000000    -3.335000000
C    -2.543000000     3.591000000    -1.993000000
O    -1.958000000     4.638000000    -1.356000000
C    -1.189000000     4.214000000    -0.250000000
H    -1.088000000     3.118000000    -0.248000000
C     0.251000000     4.752000000    -0.299000000
C     1.166000000     4.354000000     0.663000000
H     0.917000000     3.674000000     1.474000000
C     0.697000000     5.414000000    -1.475000000
H    -0.051000000     5.545000000    -2.253000000
C     2.077000000     5.654000000    -1.594000000
O     2.719000000     6.172000000    -2.744000000
C     2.972000000     5.333000000    -0.610000000
H     4.033000000     5.554000000    -0.692000000
C     2.503000000     4.691000000     0.492000000
O     3.467000000     4.527000000     1.584000000
C     3.147000000     4.588000000     2.905000000
C     2.976000000     3.433000000     3.728000000
H     3.300000000     2.490000000     3.294000000
C     2.881000000     5.850000000     3.501000000
H     2.993000000     6.806000000     2.996000000
C     2.725000000     5.956000000     4.845000000
H     2.622000000     6.967000000     5.233000000
C     2.627000000     4.836000000     5.689000000
H     2.286000000     4.949000000     6.715000000
C     2.744000000     3.537000000     5.122000000
O     2.712000000     2.382000000     5.907000000
C     2.088000000     1.179000000     5.576000000
C     2.761000000    -0.005000000     5.789000000
H     3.766000000     0.003000000     6.204000000
C     2.218000000    -1.219000000     5.392000000
O     3.062000000    -2.299000000     5.394000000
C     2.593000000    -3.615000000     5.413000000
C     2.765000000    -4.403000000     4.263000000
H     3.210000000    -3.946000000     3.383000000
C     1.836000000    -4.155000000     6.449000000
H     1.779000000    -3.604000000     7.384000000
C     1.502000000    -5.542000000     6.363000000
H     0.913000000    -5.906000000     7.201000000
C     1.757000000    -6.387000000     5.255000000
H     1.390000000    -7.408000000     5.193000000
C     2.388000000    -5.755000000     4.155000000
O     2.494000000    -6.470000000     3.006000000
C     2.096000000    -5.953000000     1.730000000
C     2.828000000    -6.309000000     0.590000000
H     3.684000000    -6.978000000     0.560000000
C     2.437000000    -5.863000000    -0.689000000
O     3.104000000    -6.089000000    -1.818000000
C     2.936000000    -5.400000000    -3.019000000
C     3.388000000    -4.047000000    -3.052000000
H     3.801000000    -3.587000000    -2.157000000
C     2.208000000    -5.951000000    -4.092000000
H     1.863000000    -6.980000000    -4.037000000
C     2.028000000    -5.175000000    -5.228000000
H     1.680000000    -5.532000000    -6.194000000
C     2.345000000    -3.785000000    -5.242000000
H     2.067000000    -3.207000000    -6.120000000
C     3.027000000    -3.241000000    -4.149000000
O     3.453000000    -1.920000000    -4.369000000
C     2.681000000    -0.781000000    -4.553000000
C     3.265000000     0.365000000    -5.063000000
H     4.271000000     0.354000000    -5.474000000
C     2.458000000     1.410000000    -5.399000000
O     3.003000000     2.580000000    -5.878000000
C     2.605000000     3.893000000    -5.589000000
C     1.754000000     4.667000000    -6.455000000
H     1.379000000     4.109000000    -7.309000000
C     1.194000000     5.865000000    -6.090000000
H     0.510000000     6.442000000    -6.707000000
C     1.472000000     6.394000000    -4.834000000
H     1.054000000     7.343000000    -4.507000000
C     2.399000000     5.701000000    -4.038000000
C     2.951000000     4.453000000    -4.375000000
H     3.462000000     3.923000000    -3.575000000
C     2.618000000    -1.842000000     0.323000000
H     3.284000000    -2.529000000    -0.194000000
C     1.354000000    -1.677000000    -0.222000000
H     1.080000000    -2.295000000    -1.073000000
C     0.592000000    -0.576000000     0.204000000
H    -0.370000000    -0.268000000    -0.174000000
C     0.989000000     0.210000000     1.265000000
H     0.337000000     1.032000000     1.549000000
C     2.184000000    -0.093000000     1.982000000
H     2.628000000     0.358000000     2.865000000
C     2.988000000    -1.141000000     1.444000000
C     4.279000000    -1.518000000     2.061000000
O     4.761000000    -0.795000000     2.910000000
O     4.965000000    -2.409000000     1.584000000
O     5.189000000    -0.727000000    -2.009000000
H     5.392000000     0.079000000    -2.484000000
H     4.809000000    -0.429000000    -1.183000000
O     5.230000000    -6.975000000     4.167000000
H     4.928000000    -7.748000000     4.644000000
H     4.469000000    -6.697000000     3.656000000
O     6.671000000     2.958000000     4.753000000
H     6.417000000     2.517000000     3.942000000
H     6.820000000     2.247000000     5.376000000
O     9.880000000     0.677000000     2.518000000
H     9.248000000    -0.031000000     2.643000000
H     9.410000000     1.329000000     1.999000000
O     5.917000000     1.746000000     2.461000000
H     5.728000000     2.023000000     1.564000000
H     5.379000000     0.964000000     2.589000000
O     8.201000000    -1.327000000     2.859000000
H     7.397000000    -1.666000000     3.252000000
H     7.995000000    -1.239000000     1.928000000
O     9.858000000    -2.028000000    -0.114000000
H     9.504000000    -1.223000000    -0.492000000
H     9.090000000    -2.577000000     0.041000000
O     6.845000000    -4.328000000     2.304000000
H     6.745000000    -4.430000000     3.250000000
H     6.160000000    -3.707000000     2.056000000
O     6.135000000    -1.677000000     4.918000000
H     5.888000000    -2.593000000     5.046000000
H     5.643000000    -1.403000000     4.144000000
O     6.531000000    -3.077000000    -2.499000000
H     6.069000000    -2.239000000    -2.481000000
H     6.667000000    -3.255000000    -3.430000000
O    10.562000000    -2.367000000     4.238000000
H    11.287000000    -2.124000000     3.663000000
H     9.776000000    -2.149000000     3.737000000
O     2.820000000     1.072000000    -1.095000000
H     3.098000000     0.509000000    -1.817000000
H     2.186000000     0.545000000    -0.610000000
O     8.272000000    -4.623000000    -0.888000000
H     7.442000000    -4.158000000    -0.996000000
H     8.017000000    -5.518000000    -0.664000000
O     6.250000000     0.561000000     5.981000000
H     6.378000000    -0.187000000     5.397000000
H     5.750000000     0.208000000     6.717000000
O     7.081000000    -1.463000000     0.144000000
H     6.700000000    -1.642000000    -0.716000000
H     6.363000000    -1.610000000     0.759000000
O     6.125000000    -3.432000000     7.567000000
H     7.066000000    -3.264000000     7.610000000
H     5.743000000    -2.594000000     7.304000000
O     5.928000000    -4.498000000     4.851000000
H     5.652000000    -5.361000000     4.542000000
H     5.707000000    -4.495000000     5.782000000
O     7.897000000    -6.807000000     2.607000000
H     7.583000000    -5.910000000     2.488000000
H     7.103000000    -7.341000000     2.603000000
O     5.390000000     2.958000000    -0.748000000
H     5.361000000     2.707000000    -1.671000000
H     4.479000000     2.912000000    -0.459000000
