215
-1455.05557
C     4.048000000    -1.261000000    -2.390000000
H     3.371000000    -2.090000000    -2.579000000
C     4.446000000    -0.813000000    -1.097000000
C     5.247000000     0.330000000    -0.932000000
H     5.441000000     0.866000000    -0.006000000
C     3.953000000    -1.561000000     0.116000000
O     4.078000000    -3.007000000     0.161000000
H     2.860000000    -1.444000000     0.159000000
O     4.585000000    -1.090000000     1.274000000
C     3.810000000    -0.788000000     2.367000000
C     3.569000000     0.604000000     2.583000000
H     4.111000000     1.282000000     1.928000000
C     2.775000000     0.962000000     3.662000000
O     2.308000000     2.235000000     3.688000000
C     2.117000000     0.023000000     4.410000000
C     1.079000000     0.470000000     5.467000000
H     1.155000000    -0.203000000     6.324000000
C    -0.323000000     0.594000000     4.879000000
C    -1.239000000    -0.453000000     4.847000000
H    -0.953000000    -1.448000000     5.180000000
H     1.373000000     1.417000000     5.924000000
C     2.291000000    -1.364000000     4.254000000
H     1.659000000    -2.064000000     4.794000000
C     3.164000000    -1.697000000     3.173000000
C     3.355000000    -3.165000000     3.030000000
H     3.211000000    -3.615000000     4.015000000
H     4.401000000    -3.354000000     2.780000000
C     2.549000000    -3.706000000     1.890000000
C     1.253000000    -4.241000000     2.190000000
H     0.987000000    -4.291000000     3.242000000
C     2.945000000    -3.698000000     0.522000000
C     2.051000000    -4.169000000    -0.416000000
H     2.273000000    -4.007000000    -1.468000000
C     0.760000000    -4.497000000    -0.139000000
O    -0.073000000    -4.738000000    -1.156000000
C    -1.103000000    -3.720000000    -1.419000000
C    -1.312000000    -3.476000000    -2.822000000
C    -2.575000000    -2.972000000    -3.242000000
H    -3.402000000    -2.786000000    -2.562000000
C    -0.348000000    -3.737000000    -3.757000000
H     0.652000000    -4.030000000    -3.448000000
O    -2.331000000    -4.067000000    -0.835000000
H    -0.713000000    -2.869000000    -0.842000000
C     0.335000000    -4.638000000     1.182000000
C    -1.071000000    -5.200000000     1.478000000
H    -0.996000000    -5.759000000     2.413000000
H    -1.376000000    -5.905000000     0.702000000
C    -2.058000000    -4.031000000     1.614000000
C    -2.304000000    -3.416000000     2.852000000
H    -1.899000000    -3.757000000     3.801000000
C    -2.694000000    -3.632000000     0.466000000
C    -3.588000000    -2.569000000     0.529000000
H    -4.124000000    -2.182000000    -0.333000000
C    -3.761000000    -1.882000000     1.728000000
O    -4.568000000    -0.799000000     1.624000000
C    -3.969000000     0.406000000     1.609000000
C    -4.647000000     1.293000000     0.603000000
C    -5.219000000     0.764000000    -0.578000000
H    -5.164000000    -0.296000000    -0.811000000
C    -4.580000000     2.648000000     0.744000000
H    -4.099000000     3.029000000     1.642000000
O    -4.013000000     0.956000000     2.964000000
H    -2.922000000     0.352000000     1.277000000
C    -3.157000000    -2.300000000     2.916000000
C    -3.380000000    -1.536000000     4.251000000
H    -3.142000000    -2.134000000     5.133000000
H    -4.409000000    -1.170000000     4.270000000
C    -2.530000000    -0.309000000     4.343000000
C    -2.876000000     0.877000000     3.698000000
C    -2.006000000     1.914000000     3.708000000
H    -2.231000000     2.869000000     3.239000000
C    -0.763000000     1.837000000     4.265000000
O     0.106000000     2.886000000     3.845000000
C     1.158000000     2.559000000     2.867000000
H     0.883000000     1.677000000     2.270000000
C     1.413000000     3.767000000     2.039000000
C     2.713000000     3.982000000     1.497000000
H     3.644000000     3.480000000     1.750000000
C     0.302000000     4.400000000     1.567000000
H    -0.656000000     4.118000000     1.996000000
C     0.471000000     5.495000000     0.736000000
O    -0.587000000     6.234000000     0.286000000
C     1.770000000     5.790000000     0.287000000
H     1.938000000     6.593000000    -0.426000000
C     2.823000000     4.975000000     0.508000000
O     4.014000000     5.422000000    -0.111000000
C     5.254000000     4.782000000    -0.144000000
C     5.331000000     3.776000000    -1.046000000
H     4.521000000     3.627000000    -1.756000000
C     6.250000000     4.995000000     0.817000000
H     6.156000000     5.730000000     1.612000000
C     7.434000000     4.185000000     0.814000000
H     8.189000000     4.362000000     1.577000000
C     7.616000000     3.284000000    -0.194000000
H     8.578000000     2.789000000    -0.296000000
C     6.504000000     3.045000000    -1.068000000
O     6.597000000     2.021000000    -2.043000000
C     5.787000000     0.919000000    -2.041000000
C     5.614000000     0.290000000    -3.288000000
H     6.084000000     0.659000000    -4.197000000
C     4.604000000    -0.611000000    -3.477000000
O     4.223000000    -0.889000000    -4.813000000
C     3.615000000    -2.020000000    -5.119000000
C     2.278000000    -2.130000000    -5.413000000
H     1.600000000    -1.285000000    -5.323000000
C     4.444000000    -3.091000000    -5.351000000
H     5.492000000    -2.977000000    -5.090000000
C     3.916000000    -4.382000000    -5.655000000
H     4.535000000    -5.270000000    -5.755000000
C     2.568000000    -4.511000000    -5.901000000
H     2.076000000    -5.456000000    -6.114000000
C     1.753000000    -3.395000000    -5.808000000
O     0.447000000    -3.614000000    -6.034000000
C    -0.535000000    -3.410000000    -5.131000000
C    -1.777000000    -2.919000000    -5.507000000
H    -2.066000000    -2.788000000    -6.547000000
C    -2.804000000    -2.671000000    -4.600000000
O    -4.008000000    -2.257000000    -5.047000000
C    -5.092000000    -1.951000000    -4.242000000
C    -5.255000000    -0.633000000    -3.886000000
H    -4.473000000     0.086000000    -4.116000000
C    -6.054000000    -2.890000000    -3.891000000
H    -5.911000000    -3.936000000    -4.153000000
C    -7.136000000    -2.511000000    -3.051000000
H    -7.890000000    -3.207000000    -2.692000000
C    -7.224000000    -1.172000000    -2.699000000
H    -7.991000000    -0.872000000    -1.989000000
C    -6.306000000    -0.234000000    -3.097000000
O    -6.487000000     1.135000000    -2.696000000
C    -5.907000000     1.569000000    -1.476000000
C    -5.941000000     2.965000000    -1.274000000
H    -6.446000000     3.664000000    -1.937000000
C    -5.226000000     3.503000000    -0.188000000
O    -5.158000000     4.877000000    -0.073000000
C    -4.182000000     5.488000000     0.701000000
C    -4.499000000     6.198000000     1.887000000
H    -5.493000000     6.172000000     2.324000000
C    -3.465000000     6.926000000     2.470000000
H    -3.607000000     7.577000000     3.329000000
C    -2.171000000     7.024000000     1.903000000
H    -1.346000000     7.587000000     2.333000000
C    -1.888000000     6.275000000     0.771000000
C    -2.862000000     5.521000000     0.162000000
H    -2.612000000     4.890000000    -0.688000000
C    -0.933000000     0.038000000    -2.444000000
H    -1.594000000    -0.120000000    -3.293000000
C    -1.277000000    -0.596000000    -1.252000000
H    -2.279000000    -1.013000000    -1.181000000
C    -0.413000000    -0.551000000    -0.177000000
H    -0.751000000    -1.049000000     0.724000000
C     0.756000000     0.156000000    -0.252000000
H     1.457000000     0.122000000     0.578000000
C     1.140000000     0.772000000    -1.443000000
H     2.045000000     1.349000000    -1.620000000
C     0.240000000     0.780000000    -2.560000000
C     0.743000000     1.393000000    -3.887000000
O     1.916000000     1.808000000    -3.916000000
O     0.087000000     1.143000000    -4.952000000
O     2.707000000     3.599000000    -9.521000000
H     1.992000000     4.235000000    -9.536000000
H     3.265000000     3.884000000    -8.797000000
O     1.498000000     5.844000000    -3.950000000
H     0.675000000     5.424000000    -4.201000000
H     1.244000000     6.727000000    -3.680000000
O     3.395000000     1.400000000    -6.015000000
H     2.699000000     1.603000000    -5.389000000
H     3.753000000     0.565000000    -5.713000000
O     0.570000000     5.706000000    -8.009000000
H     0.004000000     6.118000000    -7.357000000
H     0.617000000     4.788000000    -7.740000000
O     5.674000000     4.221000000    -5.652000000
H     6.144000000     4.862000000    -5.118000000
H     4.901000000     3.999000000    -5.132000000
O     5.672000000     1.784000000    -7.075000000
H     4.782000000     1.577000000    -6.789000000
H     5.948000000     2.498000000    -6.501000000
O    -5.149000000     1.101000000    -6.893000000
H    -5.500000000     0.327000000    -7.335000000
H    -4.226000000     0.895000000    -6.747000000
O    -2.313000000     1.875000000    -6.075000000
H    -2.678000000     2.349000000    -5.328000000
H    -1.382000000     1.786000000    -5.872000000
O     3.296000000     6.851000000    -5.847000000
H     2.940000000     6.181000000    -5.264000000
H     3.279000000     7.654000000    -5.327000000
O     0.975000000     1.483000000    -9.319000000
H     1.433000000     2.177000000    -9.793000000
H     0.536000000     1.934000000    -8.598000000
O    -2.543000000     2.554000000    -8.672000000
H    -3.443000000     2.600000000    -8.995000000
H    -2.624000000     2.195000000    -7.789000000
O     0.300000000    -2.002000000    -8.855000000
H    -0.088000000    -1.490000000    -8.146000000
H     1.214000000    -1.720000000    -8.883000000
O     3.520000000     3.710000000    -4.029000000
H     3.042000000     2.899000000    -4.202000000
H     2.838000000     4.355000000    -3.844000000
O    -3.793000000     3.755000000    -4.044000000
H    -3.354000000     4.071000000    -4.834000000
H    -3.086000000     3.631000000    -3.411000000
O     2.663000000    -0.445000000    -9.607000000
H     2.012000000     0.193000000    -9.317000000
H     3.501000000     0.005000000    -9.507000000
O    -0.755000000     4.423000000    -4.927000000
H    -1.081000000     5.096000000    -5.525000000
H    -0.315000000     3.791000000    -5.496000000
O     1.150000000     2.950000000    -6.733000000
H     0.869000000     2.343000000    -6.049000000
H     2.029000000     2.652000000    -6.971000000
O    -0.707000000    -0.176000000    -7.194000000
H    -1.554000000     0.229000000    -7.010000000
H    -0.173000000     0.025000000    -6.425000000
O    -1.919000000     3.043000000    -2.224000000
H    -1.308000000     3.679000000    -2.596000000
H    -1.361000000     2.408000000    -1.776000000
