215
-1451.85795
C    -0.495000000    -2.545000000     3.314000000
H    -0.731000000    -2.805000000     2.286000000
C    -1.043000000    -1.382000000     3.820000000
C    -0.451000000    -0.839000000     4.969000000
H    -0.812000000     0.105000000     5.368000000
C    -2.207000000    -0.846000000     3.085000000
O    -3.335000000    -1.782000000     2.897000000
H    -1.829000000    -0.433000000     2.138000000
O    -2.719000000     0.282000000     3.773000000
C    -2.930000000     1.418000000     2.997000000
C    -1.970000000     2.466000000     3.122000000
H    -1.119000000     2.309000000     3.781000000
C    -1.996000000     3.534000000     2.326000000
O    -0.937000000     4.448000000     2.546000000
C    -3.067000000     3.692000000     1.416000000
C    -3.154000000     4.876000000     0.480000000
H    -4.159000000     5.191000000     0.191000000
C    -2.344000000     4.500000000    -0.764000000
C    -2.878000000     3.837000000    -1.872000000
H    -3.960000000     3.747000000    -1.922000000
H    -2.771000000     5.767000000     0.981000000
C    -4.060000000     2.703000000     1.347000000
H    -4.881000000     2.903000000     0.664000000
C    -4.027000000     1.551000000     2.151000000
C    -5.052000000     0.451000000     2.084000000
H    -6.040000000     0.851000000     1.845000000
H    -5.273000000     0.173000000     3.117000000
C    -4.659000000    -0.721000000     1.107000000
C    -5.004000000    -0.727000000    -0.209000000
H    -5.582000000     0.103000000    -0.607000000
C    -3.956000000    -1.795000000     1.626000000
C    -3.598000000    -2.904000000     0.843000000
H    -2.968000000    -3.639000000     1.337000000
C    -3.983000000    -2.923000000    -0.462000000
O    -3.452000000    -3.921000000    -1.223000000
C    -2.248000000    -3.625000000    -1.967000000
C    -1.258000000    -4.730000000    -2.023000000
C    -0.147000000    -4.660000000    -2.824000000
H     0.054000000    -3.840000000    -3.508000000
C    -1.327000000    -5.715000000    -1.050000000
H    -2.044000000    -5.719000000    -0.232000000
O    -2.527000000    -3.218000000    -3.278000000
H    -1.772000000    -2.803000000    -1.412000000
C    -4.667000000    -1.825000000    -1.004000000
C    -4.974000000    -1.711000000    -2.494000000
H    -5.798000000    -1.008000000    -2.631000000
H    -5.348000000    -2.602000000    -3.002000000
C    -3.728000000    -1.060000000    -3.157000000
C    -3.735000000     0.297000000    -3.374000000
H    -4.623000000     0.849000000    -3.076000000
C    -2.620000000    -1.844000000    -3.464000000
C    -1.577000000    -1.214000000    -4.024000000
H    -0.671000000    -1.739000000    -4.314000000
C    -1.484000000     0.166000000    -4.077000000
O    -0.304000000     0.746000000    -4.545000000
C     0.433000000     1.367000000    -3.472000000
C     1.898000000     0.926000000    -3.437000000
C     2.232000000    -0.289000000    -4.093000000
H     1.513000000    -1.032000000    -4.429000000
C     2.863000000     1.681000000    -2.861000000
H     2.631000000     2.528000000    -2.219000000
O     0.268000000     2.799000000    -3.548000000
H     0.063000000     1.050000000    -2.486000000
C    -2.612000000     0.923000000    -3.811000000
C    -2.649000000     2.458000000    -4.004000000
H    -3.715000000     2.697000000    -4.010000000
H    -2.144000000     2.738000000    -4.931000000
C    -2.035000000     3.191000000    -2.844000000
C    -0.618000000     3.372000000    -2.732000000
C    -0.149000000     4.164000000    -1.676000000
H     0.917000000     4.256000000    -1.482000000
C    -0.959000000     4.693000000    -0.698000000
O    -0.346000000     5.371000000     0.399000000
C     0.014000000     4.419000000     1.458000000
H     0.016000000     3.412000000     1.014000000
C     1.478000000     4.468000000     1.954000000
C     1.728000000     3.972000000     3.193000000
H     0.920000000     3.538000000     3.777000000
C     2.454000000     5.048000000     1.163000000
H     2.319000000     5.445000000     0.161000000
C     3.786000000     4.955000000     1.579000000
O     4.779000000     5.514000000     0.806000000
C     4.020000000     4.483000000     2.862000000
H     4.997000000     4.569000000     3.330000000
C     3.033000000     3.987000000     3.697000000
O     3.449000000     3.396000000     4.860000000
C     2.620000000     2.732000000     5.828000000
C     2.230000000     1.350000000     5.648000000
H     2.475000000     0.899000000     4.690000000
C     2.330000000     3.382000000     7.042000000
H     2.693000000     4.384000000     7.254000000
C     1.490000000     2.735000000     7.995000000
H     1.260000000     3.257000000     8.920000000
C     1.059000000     1.420000000     7.758000000
H     0.479000000     0.888000000     8.508000000
C     1.453000000     0.703000000     6.599000000
O     1.268000000    -0.687000000     6.560000000
C     0.746000000    -1.316000000     5.521000000
C     1.183000000    -2.507000000     5.063000000
H     2.021000000    -3.003000000     5.547000000
C     0.613000000    -3.096000000     3.934000000
O     1.253000000    -4.209000000     3.425000000
C     0.608000000    -5.323000000     3.167000000
C     0.495000000    -5.706000000     1.856000000
H     0.888000000    -5.174000000     0.992000000
C    -0.051000000    -5.994000000     4.189000000
H     0.090000000    -5.606000000     5.195000000
C    -0.811000000    -7.113000000     3.894000000
H    -1.470000000    -7.597000000     4.611000000
C    -0.907000000    -7.550000000     2.572000000
H    -1.570000000    -8.345000000     2.240000000
C    -0.267000000    -6.892000000     1.531000000
O    -0.271000000    -7.414000000     0.210000000
C    -0.322000000    -6.668000000    -0.881000000
C     0.783000000    -6.554000000    -1.619000000
H     1.675000000    -7.105000000    -1.331000000
C     0.855000000    -5.610000000    -2.651000000
O     1.997000000    -5.575000000    -3.369000000
C     2.298000000    -4.785000000    -4.432000000
C     3.113000000    -3.657000000    -4.226000000
H     3.549000000    -3.462000000    -3.249000000
C     1.860000000    -5.045000000    -5.751000000
H     1.407000000    -6.013000000    -5.949000000
C     2.118000000    -4.186000000    -6.738000000
H     1.967000000    -4.432000000    -7.786000000
C     2.906000000    -3.042000000    -6.514000000
H     3.217000000    -2.431000000    -7.357000000
C     3.443000000    -2.803000000    -5.295000000
O     4.059000000    -1.609000000    -5.015000000
C     3.552000000    -0.539000000    -4.314000000
C     4.552000000     0.344000000    -3.903000000
H     5.609000000     0.163000000    -4.077000000
C     4.226000000     1.500000000    -3.189000000
O     5.147000000     2.374000000    -2.813000000
C     4.965000000     3.662000000    -2.396000000
C     4.711000000     4.746000000    -3.285000000
H     4.668000000     4.620000000    -4.364000000
C     4.581000000     6.107000000    -2.828000000
H     4.591000000     6.994000000    -3.455000000
C     4.652000000     6.369000000    -1.464000000
H     4.522000000     7.405000000    -1.161000000
C     4.894000000     5.309000000    -0.573000000
C     5.049000000     4.005000000    -1.036000000
H     5.115000000     3.222000000    -0.284000000
C     1.338000000    -1.792000000    -0.032000000
H     1.935000000    -2.672000000    -0.254000000
C     0.210000000    -1.498000000    -0.861000000
H     0.095000000    -2.060000000    -1.784000000
C    -0.685000000    -0.488000000    -0.498000000
H    -1.634000000    -0.434000000    -1.075000000
C    -0.291000000     0.356000000     0.546000000
H    -0.929000000     1.212000000     0.750000000
C     0.814000000     0.051000000     1.375000000
H     1.070000000     0.629000000     2.260000000
C     1.705000000    -0.987000000     1.066000000
C     2.901000000    -1.398000000     1.901000000
O     3.072000000    -0.914000000     2.990000000
O     3.764000000    -2.040000000     1.372000000
O     4.235000000    -3.075000000    -0.967000000
H     4.570000000    -2.481000000    -1.638000000
H     4.073000000    -2.514000000    -0.209000000
O     5.006000000     1.891000000     7.880000000
H     4.435000000     1.970000000     7.116000000
H     5.747000000     1.369000000     7.572000000
O     6.335000000    -0.382000000     6.225000000
H     6.980000000    -1.059000000     6.428000000
H     5.539000000    -0.667000000     6.674000000
O     8.356000000    -0.800000000     2.304000000
H     7.588000000    -0.382000000     2.695000000
H     9.098000000    -0.442000000     2.792000000
O     7.588000000    -1.510000000    -1.401000000
H     7.885000000    -2.152000000    -0.757000000
H     7.426000000    -2.023000000    -2.193000000
O     5.373000000     0.420000000     2.393000000
H     5.677000000     0.377000000     1.486000000
H     4.618000000    -0.169000000     2.420000000
O     6.208000000    -3.188000000     2.080000000
H     5.534000000    -2.634000000     1.687000000
H     6.316000000    -2.841000000     2.966000000
O     3.828000000    -5.307000000     2.281000000
H     3.141000000    -4.857000000     2.772000000
H     4.570000000    -4.702000000     2.300000000
O     4.345000000    -8.183000000     2.921000000
H     4.276000000    -7.230000000     2.980000000
H     5.269000000    -8.346000000     2.732000000
O     4.188000000    -1.020000000     7.446000000
H     4.067000000    -1.683000000     8.126000000
H     3.309000000    -0.673000000     7.292000000
O     3.901000000    -5.994000000    -0.392000000
H     4.010000000    -5.607000000     0.477000000
H     4.101000000    -5.281000000    -0.999000000
O     4.901000000    -2.475000000     4.367000000
H     5.163000000    -1.627000000     4.725000000
H     4.141000000    -2.279000000     3.818000000
O     5.771000000     1.889000000     4.783000000
H     5.465000000     1.592000000     3.926000000
H     5.678000000     1.123000000     5.349000000
O     6.235000000     0.674000000    -0.350000000
H     6.231000000     1.397000000    -0.977000000
H     6.744000000    -0.013000000    -0.780000000
O     7.392000000     2.837000000     2.026000000
H     6.617000000     2.294000000     2.173000000
H     7.770000000     2.501000000     1.214000000
O     8.879000000    -2.724000000     0.655000000
H     8.781000000    -1.787000000     0.821000000
H     8.297000000    -3.142000000     1.291000000
O     6.423000000    -4.433000000    -0.830000000
H     5.617000000    -3.934000000    -0.963000000
H     6.305000000    -4.857000000     0.020000000
O    -2.396000000    -3.354000000     6.309000000
H    -3.195000000    -2.828000000     6.278000000
H    -1.743000000    -2.825000000     5.851000000
O     5.335000000    -4.300000000     6.616000000
H     5.015000000    -3.794000000     5.870000000
H     5.158000000    -3.746000000     7.376000000
