215
-1459.70563
C    -0.411000000    -2.412000000     3.712000000
H    -0.681000000    -2.930000000     2.795000000
C    -1.167000000    -1.367000000     4.143000000
C    -0.719000000    -0.635000000     5.278000000
H    -1.352000000     0.134000000     5.712000000
C    -2.269000000    -0.782000000     3.270000000
O    -3.115000000    -1.891000000     2.882000000
H    -1.641000000    -0.451000000     2.429000000
O    -2.977000000     0.279000000     3.811000000
C    -3.218000000     1.343000000     2.976000000
C    -2.390000000     2.493000000     3.041000000
H    -1.500000000     2.461000000     3.664000000
C    -2.619000000     3.641000000     2.297000000
O    -1.616000000     4.572000000     2.377000000
C    -3.554000000     3.456000000     1.244000000
C    -3.504000000     4.437000000     0.112000000
H    -4.523000000     4.577000000    -0.253000000
C    -2.608000000     3.959000000    -1.074000000
C    -3.164000000     3.274000000    -2.170000000
H    -4.239000000     3.131000000    -2.245000000
H    -3.186000000     5.377000000     0.570000000
C    -4.416000000     2.351000000     1.155000000
H    -5.061000000     2.245000000     0.287000000
C    -4.279000000     1.264000000     2.085000000
C    -5.157000000    -0.010000000     1.991000000
H    -6.110000000     0.193000000     1.499000000
H    -5.404000000    -0.282000000     3.019000000
C    -4.512000000    -1.079000000     1.092000000
C    -4.778000000    -1.048000000    -0.305000000
H    -5.421000000    -0.361000000    -0.848000000
C    -3.524000000    -1.935000000     1.563000000
C    -2.946000000    -2.803000000     0.760000000
H    -2.188000000    -3.490000000     1.129000000
C    -3.262000000    -2.910000000    -0.599000000
O    -2.649000000    -3.891000000    -1.361000000
C    -1.517000000    -3.508000000    -2.214000000
C    -0.431000000    -4.579000000    -2.082000000
C     0.538000000    -4.627000000    -3.115000000
H     0.426000000    -3.959000000    -3.965000000
C    -0.257000000    -5.369000000    -0.999000000
H    -0.966000000    -5.507000000    -0.187000000
O    -2.043000000    -3.274000000    -3.603000000
H    -1.060000000    -2.613000000    -1.767000000
C    -4.290000000    -2.074000000    -1.122000000
C    -4.594000000    -2.074000000    -2.592000000
H    -5.564000000    -1.572000000    -2.594000000
H    -4.814000000    -3.050000000    -3.030000000
C    -3.518000000    -1.328000000    -3.336000000
C    -3.753000000     0.017000000    -3.679000000
H    -4.684000000     0.515000000    -3.419000000
C    -2.381000000    -1.986000000    -3.796000000
C    -1.441000000    -1.238000000    -4.522000000
H    -0.569000000    -1.768000000    -4.896000000
C    -1.591000000     0.142000000    -4.727000000
O    -0.503000000     0.812000000    -5.169000000
C     0.320000000     1.473000000    -4.091000000
C     1.832000000     1.152000000    -4.112000000
C     2.350000000     0.071000000    -4.837000000
H     1.687000000    -0.501000000    -5.482000000
C     2.644000000     1.768000000    -3.213000000
H     2.228000000     2.490000000    -2.514000000
O     0.024000000     2.854000000    -4.098000000
H    -0.158000000     1.144000000    -3.157000000
C    -2.743000000     0.804000000    -4.317000000
C    -2.881000000     2.283000000    -4.443000000
H    -3.926000000     2.585000000    -4.538000000
H    -2.273000000     2.661000000    -5.267000000
C    -2.300000000     3.012000000    -3.253000000
C    -0.927000000     3.218000000    -3.131000000
C    -0.390000000     3.832000000    -1.958000000
H     0.678000000     4.019000000    -1.880000000
C    -1.253000000     4.291000000    -0.924000000
O    -0.706000000     4.956000000     0.110000000
C    -0.622000000     4.275000000     1.400000000
H    -0.683000000     3.198000000     1.185000000
C     0.710000000     4.472000000     2.172000000
C     0.724000000     4.271000000     3.575000000
H    -0.203000000     3.934000000     4.032000000
C     1.905000000     4.735000000     1.471000000
H     1.912000000     4.893000000     0.396000000
C     3.127000000     4.880000000     2.241000000
O     4.292000000     5.180000000     1.527000000
C     3.043000000     4.711000000     3.626000000
H     3.932000000     4.867000000     4.232000000
C     1.947000000     4.361000000     4.335000000
O     1.984000000     4.361000000     5.757000000
C     1.409000000     3.374000000     6.552000000
C     1.425000000     2.000000000     6.240000000
H     1.857000000     1.629000000     5.314000000
C     0.943000000     3.835000000     7.795000000
H     0.777000000     4.889000000     8.007000000
C     0.626000000     2.858000000     8.752000000
H     0.260000000     3.149000000     9.734000000
C     0.584000000     1.525000000     8.457000000
H     0.322000000     0.799000000     9.222000000
C     0.948000000     1.082000000     7.204000000
O     0.911000000    -0.270000000     7.048000000
C     0.423000000    -1.044000000     5.949000000
C     1.192000000    -2.136000000     5.537000000
H     2.084000000    -2.464000000     6.065000000
C     0.754000000    -2.772000000     4.371000000
O     1.567000000    -3.785000000     3.866000000
C     1.024000000    -4.995000000     3.289000000
C     1.364000000    -5.345000000     2.024000000
H     2.185000000    -4.866000000     1.496000000
C     0.021000000    -5.707000000     4.010000000
H    -0.364000000    -5.275000000     4.930000000
C    -0.466000000    -6.900000000     3.473000000
H    -1.236000000    -7.409000000     4.046000000
C    -0.062000000    -7.336000000     2.170000000
H    -0.457000000    -8.245000000     1.725000000
C     0.861000000    -6.555000000     1.479000000
O     1.081000000    -6.965000000     0.216000000
C     0.839000000    -6.152000000    -0.915000000
C     1.818000000    -6.263000000    -1.875000000
H     2.761000000    -6.796000000    -1.787000000
C     1.608000000    -5.501000000    -3.033000000
O     2.585000000    -5.558000000    -4.020000000
C     2.875000000    -4.616000000    -4.940000000
C     3.354000000    -3.344000000    -4.626000000
H     3.601000000    -3.145000000    -3.587000000
C     2.853000000    -5.097000000    -6.273000000
H     2.573000000    -6.104000000    -6.572000000
C     3.263000000    -4.256000000    -7.285000000
H     3.163000000    -4.467000000    -8.347000000
C     3.701000000    -3.027000000    -6.937000000
H     4.067000000    -2.368000000    -7.721000000
C     3.795000000    -2.503000000    -5.638000000
O     4.351000000    -1.257000000    -5.373000000
C     3.677000000    -0.251000000    -4.605000000
C     4.466000000     0.374000000    -3.687000000
H     5.501000000     0.043000000    -3.689000000
C     3.962000000     1.511000000    -3.064000000
O     4.716000000     2.159000000    -2.177000000
C     4.564000000     3.462000000    -1.685000000
C     4.939000000     4.581000000    -2.478000000
H     5.103000000     4.380000000    -3.534000000
C     5.099000000     5.800000000    -1.925000000
H     5.333000000     6.627000000    -2.591000000
C     4.777000000     6.058000000    -0.616000000
H     4.851000000     7.047000000    -0.172000000
C     4.446000000     4.958000000     0.196000000
C     4.291000000     3.677000000    -0.320000000
H     3.914000000     2.841000000     0.263000000
C     1.667000000    -0.481000000    -0.733000000
H     2.535000000    -0.872000000    -1.258000000
C     0.473000000    -0.631000000    -1.428000000
H     0.286000000    -0.992000000    -2.436000000
C    -0.705000000    -0.174000000    -0.870000000
H    -1.617000000    -0.284000000    -1.390000000
C    -0.684000000     0.333000000     0.408000000
H    -1.564000000     0.903000000     0.694000000
C     0.497000000     0.416000000     1.184000000
H     0.465000000     0.906000000     2.154000000
C     1.707000000    -0.007000000     0.606000000
C     2.987000000     0.130000000     1.283000000
O     2.973000000     0.845000000     2.294000000
O     3.962000000    -0.507000000     0.918000000
O     6.646000000     0.228000000     0.569000000
H     6.808000000     1.058000000     1.018000000
H     5.717000000     0.257000000     0.341000000
O     4.105000000     1.864000000     8.166000000
H     3.256000000     2.272000000     7.995000000
H     4.130000000     1.109000000     7.578000000
O     7.103000000     2.508000000     1.818000000
H     7.144000000     3.233000000     2.442000000
H     7.909000000     2.588000000     1.307000000
O     8.287000000    -0.504000000    -1.854000000
H     7.844000000    -0.477000000    -1.006000000
H     7.924000000    -1.275000000    -2.290000000
O     7.620000000    -1.154000000     6.031000000
H     8.359000000    -0.729000000     6.466000000
H     7.631000000    -0.802000000     5.141000000
O     5.228000000     1.405000000     3.737000000
H     5.808000000     1.800000000     3.087000000
H     4.389000000     1.311000000     3.285000000
O     6.619000000     4.813000000     3.038000000
H     5.744000000     4.959000000     2.678000000
H     7.055000000     5.661000000     2.960000000
O     6.785000000    -1.314000000     3.285000000
H     5.961000000    -1.761000000     3.478000000
H     6.528000000    -0.549000000     2.770000000
O     3.524000000    -3.033000000    -0.192000000
H     3.540000000    -2.245000000     0.352000000
H     2.781000000    -2.903000000    -0.781000000
O     4.648000000    -0.281000000     6.517000000
H     5.355000000    -0.875000000     6.769000000
H     4.826000000    -0.073000000     5.600000000
O     6.305000000    -2.741000000     0.439000000
H     5.371000000    -2.866000000     0.271000000
H     6.358000000    -1.894000000     0.881000000
O     4.083000000    -1.988000000     3.317000000
H     3.414000000    -1.648000000     3.911000000
H     4.079000000    -1.380000000     2.578000000
O     6.101000000     2.717000000     6.080000000
H     5.675000000     2.261000000     5.355000000
H     5.979000000     2.139000000     6.832000000
O     5.046000000    -4.958000000    -1.831000000
H     4.499000000    -4.647000000    -1.111000000
H     5.387000000    -4.160000000    -2.235000000
O     9.706000000    -1.503000000     2.296000000
H    10.194000000    -0.839000000     1.807000000
H     8.790000000    -1.344000000     2.065000000
O     7.410000000    -3.871000000     5.515000000
H     6.486000000    -4.033000000     5.325000000
H     7.483000000    -2.917000000     5.556000000
O     8.980000000    -4.254000000     0.187000000
H     8.261000000    -3.639000000     0.043000000
H     9.021000000    -4.357000000     1.138000000
O     4.699000000    -4.305000000     5.035000000
H     4.314000000    -3.639000000     4.466000000
H     4.542000000    -3.982000000     5.922000000
O     6.370000000    -5.660000000     3.198000000
H     7.286000000    -5.432000000     3.038000000
H     6.005000000    -4.891000000     3.635000000
