215
-1452.38272
C    -0.108000000    -2.488000000     4.225000000
H    -0.238000000    -3.137000000     3.363000000
C    -0.942000000    -1.456000000     4.339000000
C    -0.661000000    -0.453000000     5.279000000
H    -1.263000000     0.450000000     5.342000000
C    -2.175000000    -1.226000000     3.382000000
O    -2.938000000    -2.448000000     3.159000000
H    -1.867000000    -0.843000000     2.398000000
O    -3.133000000    -0.240000000     3.900000000
C    -3.572000000     0.786000000     3.033000000
C    -2.813000000     1.967000000     2.920000000
H    -2.027000000     2.199000000     3.635000000
C    -3.130000000     2.965000000     1.977000000
O    -2.357000000     4.129000000     1.883000000
C    -4.177000000     2.641000000     1.050000000
C    -4.403000000     3.523000000    -0.198000000
H    -5.413000000     3.244000000    -0.504000000
C    -3.302000000     3.341000000    -1.228000000
C    -3.611000000     2.560000000    -2.337000000
H    -4.592000000     2.096000000    -2.399000000
H    -4.619000000     4.565000000     0.046000000
C    -4.762000000     1.395000000     1.085000000
H    -5.323000000     1.149000000     0.187000000
C    -4.508000000     0.410000000     2.019000000
C    -5.217000000    -0.898000000     1.923000000
H    -6.148000000    -0.673000000     1.397000000
H    -5.458000000    -1.285000000     2.915000000
C    -4.351000000    -1.929000000     1.272000000
C    -4.595000000    -2.122000000    -0.082000000
H    -5.413000000    -1.619000000    -0.593000000
C    -3.415000000    -2.732000000     1.922000000
C    -2.595000000    -3.588000000     1.236000000
H    -1.711000000    -4.012000000     1.705000000
C    -2.744000000    -3.725000000    -0.093000000
O    -1.716000000    -4.439000000    -0.700000000
C    -0.702000000    -3.695000000    -1.417000000
C     0.653000000    -4.408000000    -1.172000000
C     1.683000000    -4.228000000    -2.089000000
H     1.470000000    -3.649000000    -2.984000000
C     0.837000000    -5.235000000    -0.081000000
H     0.037000000    -5.516000000     0.599000000
O    -1.039000000    -3.768000000    -2.834000000
H    -0.839000000    -2.661000000    -1.065000000
C    -3.713000000    -3.012000000    -0.794000000
C    -3.808000000    -3.187000000    -2.314000000
H    -4.851000000    -2.932000000    -2.511000000
H    -3.576000000    -4.210000000    -2.618000000
C    -2.849000000    -2.232000000    -3.070000000
C    -3.278000000    -0.927000000    -3.383000000
H    -4.303000000    -0.700000000    -3.100000000
C    -1.558000000    -2.658000000    -3.376000000
C    -0.670000000    -1.751000000    -3.969000000
H     0.338000000    -2.109000000    -4.162000000
C    -1.170000000    -0.488000000    -4.457000000
O    -0.274000000     0.369000000    -4.993000000
C     0.328000000     1.240000000    -4.008000000
C     1.799000000     1.345000000    -4.217000000
C     2.510000000     0.256000000    -4.749000000
H     2.001000000    -0.675000000    -4.983000000
C     2.446000000     2.515000000    -3.940000000
H     1.909000000     3.287000000    -3.395000000
O    -0.332000000     2.563000000    -4.126000000
H     0.241000000     0.904000000    -2.965000000
C    -2.467000000    -0.073000000    -4.094000000
C    -2.932000000     1.289000000    -4.564000000
H    -4.012000000     1.413000000    -4.671000000
H    -2.497000000     1.526000000    -5.538000000
C    -2.659000000     2.235000000    -3.358000000
C    -1.424000000     2.944000000    -3.339000000
C    -1.166000000     3.768000000    -2.243000000
H    -0.181000000     4.219000000    -2.155000000
C    -2.150000000     4.211000000    -1.330000000
O    -1.793000000     4.950000000    -0.232000000
C    -1.287000000     4.127000000     0.884000000
H    -1.275000000     3.062000000     0.612000000
C    -0.002000000     4.630000000     1.544000000
C     0.271000000     4.265000000     2.866000000
H    -0.484000000     3.749000000     3.453000000
C     0.931000000     5.204000000     0.732000000
H     0.637000000     5.442000000    -0.287000000
C     2.233000000     5.390000000     1.223000000
O     3.151000000     6.023000000     0.410000000
C     2.586000000     5.021000000     2.591000000
H     3.609000000     5.107000000     2.946000000
C     1.637000000     4.375000000     3.349000000
O     2.041000000     3.972000000     4.570000000
C     1.252000000     3.517000000     5.625000000
C     1.317000000     2.176000000     5.916000000
H     1.798000000     1.470000000     5.244000000
C     0.600000000     4.374000000     6.426000000
H     0.644000000     5.433000000     6.183000000
C     0.060000000     3.929000000     7.629000000
H    -0.362000000     4.616000000     8.358000000
C    -0.105000000     2.524000000     7.841000000
H    -0.524000000     2.117000000     8.758000000
C     0.588000000     1.680000000     6.979000000
O     0.690000000     0.281000000     7.188000000
C     0.426000000    -0.626000000     6.160000000
C     1.357000000    -1.644000000     6.021000000
H     2.291000000    -1.721000000     6.571000000
C     1.075000000    -2.569000000     5.017000000
O     1.879000000    -3.638000000     4.737000000
C     1.442000000    -4.843000000     4.210000000
C     2.016000000    -5.199000000     2.994000000
H     2.644000000    -4.473000000     2.485000000
C     0.581000000    -5.710000000     4.915000000
H     0.084000000    -5.506000000     5.860000000
C     0.401000000    -6.979000000     4.323000000
H    -0.236000000    -7.663000000     4.879000000
C     1.048000000    -7.365000000     3.107000000
H     0.964000000    -8.386000000     2.743000000
C     1.833000000    -6.432000000     2.420000000
O     2.391000000    -6.663000000     1.176000000
C     2.082000000    -5.814000000     0.085000000
C     3.101000000    -5.613000000    -0.781000000
H     4.107000000    -6.012000000    -0.683000000
C     2.950000000    -4.868000000    -1.954000000
O     4.048000000    -4.682000000    -2.814000000
C     4.057000000    -3.990000000    -3.984000000
C     4.361000000    -2.661000000    -4.043000000
H     4.779000000    -2.208000000    -3.147000000
C     3.657000000    -4.697000000    -5.121000000
H     3.461000000    -5.760000000    -5.005000000
C     3.514000000    -4.066000000    -6.338000000
H     3.020000000    -4.517000000    -7.195000000
C     3.855000000    -2.698000000    -6.431000000
H     3.731000000    -2.147000000    -7.360000000
C     4.273000000    -2.074000000    -5.257000000
O     4.767000000    -0.772000000    -5.371000000
C     3.899000000     0.312000000    -4.987000000
C     4.545000000     1.592000000    -4.685000000
H     5.627000000     1.573000000    -4.785000000
C     3.811000000     2.651000000    -4.120000000
O     4.493000000     3.773000000    -3.649000000
C     3.815000000     4.821000000    -2.968000000
C     3.181000000     5.821000000    -3.722000000
H     3.234000000     5.787000000    -4.807000000
C     2.584000000     6.891000000    -3.104000000
H     2.159000000     7.667000000    -3.735000000
C     2.593000000     6.981000000    -1.710000000
H     2.279000000     7.863000000    -1.159000000
C     3.152000000     5.921000000    -0.948000000
C     3.721000000     4.819000000    -1.582000000
H     4.187000000     3.990000000    -1.056000000
C     2.221000000     1.444000000     1.204000000
H     2.678000000     2.411000000     1.008000000
C     1.226000000     1.084000000     0.319000000
H     0.875000000     1.753000000    -0.463000000
C     0.744000000    -0.245000000     0.314000000
H    -0.169000000    -0.503000000    -0.296000000
C     1.202000000    -1.160000000     1.281000000
H     0.763000000    -2.139000000     1.453000000
C     2.235000000    -0.738000000     2.119000000
H     2.534000000    -1.569000000     2.753000000
C     2.824000000     0.522000000     2.014000000
C     4.094000000     0.900000000     2.761000000
O     4.682000000     0.049000000     3.425000000
O     4.596000000     1.976000000     2.722000000
O     5.687000000     1.953000000     0.079000000
H     6.415000000     2.447000000     0.455000000
H     5.117000000     1.761000000     0.824000000
O     5.888000000     2.307000000     7.476000000
H     5.379000000     2.807000000     6.838000000
H     5.231000000     1.905000000     8.044000000
O     4.814000000    -0.373000000     6.038000000
H     4.736000000    -0.346000000     5.085000000
H     5.429000000     0.330000000     6.248000000
O     8.042000000     3.209000000     0.696000000
H     7.712000000     3.438000000     1.565000000
H     7.884000000     3.990000000     0.166000000
O     5.516000000    -0.876000000    -0.420000000
H     4.915000000    -0.134000000    -0.494000000
H     5.986000000    -0.887000000    -1.253000000
O     9.771000000     1.188000000     2.060000000
H     9.026000000     0.588000000     2.032000000
H     9.864000000     1.495000000     1.158000000
O     4.658000000     3.175000000     5.241000000
H     4.911000000     2.443000000     4.678000000
H     3.773000000     3.403000000     4.955000000
O     6.370000000     3.778000000     2.791000000
H     5.917000000     4.262000000     3.482000000
H     5.799000000     3.031000000     2.609000000
O     6.859000000     1.233000000     4.436000000
H     6.046000000     0.955000000     4.013000000
H     7.069000000     2.070000000     4.021000000
O     4.982000000    -2.768000000     2.998000000
H     4.757000000    -2.999000000     3.899000000
H     4.798000000    -1.831000000     2.938000000
O     8.215000000    -1.109000000     5.529000000
H     7.721000000    -0.324000000     5.289000000
H     8.042000000    -1.224000000     6.464000000
O     7.266000000    -0.603000000     1.618000000
H     6.488000000    -0.410000000     2.142000000
H     6.929000000    -0.744000000     0.733000000
O     4.445000000    -3.526000000     5.457000000
H     4.813000000    -3.881000000     6.266000000
H     3.502000000    -3.670000000     5.539000000
O     9.705000000     1.954000000     4.648000000
H     9.720000000     1.973000000     3.691000000
H     9.258000000     1.136000000     4.864000000
O     7.204000000     2.088000000    -2.203000000
H     6.544000000     2.158000000    -1.514000000
H     7.060000000     1.223000000    -2.587000000
O     6.142000000    -3.542000000     0.585000000
H     5.865000000    -3.471000000     1.498000000
H     5.642000000    -2.865000000     0.129000000
O     7.634000000    -3.440000000     3.878000000
H     6.726000000    -3.277000000     3.623000000
H     7.905000000    -2.639000000     4.326000000
O     9.726000000    -1.712000000     0.787000000
H     9.032000000    -1.440000000     1.387000000
H    10.278000000    -2.295000000     1.308000000
O     4.595000000    -1.500000000     8.365000000
H     5.499000000    -1.380000000     8.656000000
H     4.583000000    -1.159000000     7.471000000
