215
-1462.08572
C     0.446000000    -3.047000000     4.759000000
H    -0.019000000    -3.837000000     4.175000000
C    -0.196000000    -1.772000000     4.799000000
C     0.437000000    -0.722000000     5.481000000
H    -0.019000000     0.262000000     5.554000000
C    -1.442000000    -1.391000000     3.987000000
O    -2.256000000    -2.552000000     3.799000000
H    -1.047000000    -1.053000000     3.018000000
O    -2.253000000    -0.318000000     4.580000000
C    -2.851000000     0.558000000     3.700000000
C    -2.113000000     1.734000000     3.444000000
H    -1.193000000     2.065000000     3.918000000
C    -2.607000000     2.650000000     2.517000000
O    -1.915000000     3.819000000     2.179000000
C    -3.766000000     2.354000000     1.732000000
C    -4.225000000     3.288000000     0.663000000
H    -5.251000000     3.005000000     0.421000000
C    -3.564000000     3.154000000    -0.693000000
C    -4.181000000     2.427000000    -1.687000000
H    -5.135000000     1.915000000    -1.593000000
H    -4.283000000     4.326000000     0.998000000
C    -4.507000000     1.197000000     1.987000000
H    -5.453000000     0.972000000     1.502000000
C    -4.020000000     0.287000000     2.973000000
C    -4.669000000    -1.047000000     3.118000000
H    -5.747000000    -0.966000000     2.969000000
H    -4.684000000    -1.449000000     4.133000000
C    -3.975000000    -1.997000000     2.170000000
C    -4.463000000    -2.164000000     0.811000000
H    -5.252000000    -1.540000000     0.400000000
C    -2.860000000    -2.702000000     2.614000000
C    -2.242000000    -3.601000000     1.702000000
H    -1.405000000    -4.223000000     2.011000000
C    -2.762000000    -3.754000000     0.461000000
O    -2.048000000    -4.479000000    -0.460000000
C    -1.097000000    -3.675000000    -1.150000000
C     0.299000000    -4.231000000    -1.196000000
C     1.265000000    -3.581000000    -1.935000000
H     0.914000000    -2.743000000    -2.531000000
C     0.721000000    -5.291000000    -0.321000000
H    -0.025000000    -5.815000000     0.271000000
O    -1.514000000    -3.482000000    -2.500000000
H    -0.970000000    -2.702000000    -0.651000000
C    -3.784000000    -3.035000000    -0.031000000
C    -4.289000000    -3.087000000    -1.542000000
H    -5.333000000    -2.769000000    -1.490000000
H    -4.167000000    -4.127000000    -1.854000000
C    -3.538000000    -2.099000000    -2.430000000
C    -4.130000000    -0.904000000    -2.867000000
H    -5.114000000    -0.583000000    -2.536000000
C    -2.247000000    -2.416000000    -2.906000000
C    -1.685000000    -1.587000000    -3.897000000
H    -0.692000000    -1.828000000    -4.268000000
C    -2.302000000    -0.383000000    -4.294000000
O    -1.604000000     0.463000000    -5.049000000
C    -0.883000000     1.514000000    -4.265000000
C     0.528000000     1.657000000    -4.825000000
C     1.160000000     0.601000000    -5.343000000
H     0.648000000    -0.337000000    -5.542000000
C     1.198000000     2.802000000    -4.578000000
H     0.743000000     3.654000000    -4.078000000
O    -1.601000000     2.751000000    -4.313000000
H    -0.686000000     1.164000000    -3.241000000
C    -3.519000000    -0.024000000    -3.705000000
C    -4.203000000     1.283000000    -4.022000000
H    -5.295000000     1.264000000    -4.002000000
H    -4.016000000     1.586000000    -5.054000000
C    -3.636000000     2.356000000    -3.024000000
C    -2.422000000     2.946000000    -3.277000000
C    -1.811000000     3.760000000    -2.303000000
H    -0.874000000     4.269000000    -2.513000000
C    -2.408000000     3.883000000    -1.041000000
O    -1.669000000     4.567000000    -0.056000000
C    -1.088000000     3.772000000     0.982000000
H    -0.916000000     2.732000000     0.668000000
C     0.372000000     4.203000000     1.187000000
C     1.046000000     3.673000000     2.298000000
H     0.642000000     3.096000000     3.126000000
C     1.089000000     4.887000000     0.219000000
H     0.606000000     5.411000000    -0.602000000
C     2.484000000     5.166000000     0.353000000
O     3.151000000     6.033000000    -0.448000000
C     3.182000000     4.686000000     1.426000000
H     4.248000000     4.790000000     1.611000000
C     2.485000000     3.969000000     2.436000000
O     3.181000000     3.545000000     3.513000000
C     2.718000000     3.145000000     4.745000000
C     2.893000000     1.786000000     5.162000000
H     3.214000000     1.047000000     4.432000000
C     2.234000000     4.038000000     5.683000000
H     2.276000000     5.089000000     5.412000000
C     1.857000000     3.660000000     6.988000000
H     1.397000000     4.398000000     7.640000000
C     1.901000000     2.306000000     7.349000000
H     1.481000000     1.985000000     8.298000000
C     2.514000000     1.407000000     6.416000000
O     2.463000000     0.064000000     6.730000000
C     1.735000000    -0.941000000     5.992000000
C     2.300000000    -2.201000000     5.965000000
H     3.252000000    -2.389000000     6.456000000
C     1.685000000    -3.252000000     5.310000000
O     2.395000000    -4.437000000     5.131000000
C     1.962000000    -5.461000000     4.300000000
C     2.414000000    -5.547000000     3.009000000
H     3.241000000    -4.922000000     2.682000000
C     1.016000000    -6.364000000     4.714000000
H     0.563000000    -6.366000000     5.702000000
C     0.471000000    -7.275000000     3.823000000
H    -0.309000000    -7.929000000     4.207000000
C     0.954000000    -7.391000000     2.525000000
H     0.490000000    -8.121000000     1.867000000
C     1.970000000    -6.536000000     2.047000000
O     2.333000000    -6.564000000     0.739000000
C     2.047000000    -5.570000000    -0.160000000
C     3.018000000    -4.954000000    -0.867000000
H     4.089000000    -5.036000000    -0.702000000
C     2.618000000    -3.881000000    -1.777000000
O     3.605000000    -3.101000000    -2.362000000
C     3.693000000    -2.902000000    -3.723000000
C     3.467000000    -1.614000000    -4.265000000
H     3.477000000    -0.765000000    -3.587000000
C     3.866000000    -4.012000000    -4.572000000
H     3.936000000    -5.001000000    -4.126000000
C     3.932000000    -3.834000000    -5.977000000
H     4.000000000    -4.731000000    -6.588000000
C     3.823000000    -2.543000000    -6.538000000
H     4.000000000    -2.337000000    -7.590000000
C     3.476000000    -1.470000000    -5.705000000
O     3.214000000    -0.244000000    -6.283000000
C     2.561000000     0.745000000    -5.675000000
C     3.225000000     1.929000000    -5.521000000
H     4.269000000     2.040000000    -5.802000000
C     2.550000000     2.949000000    -4.906000000
O     3.296000000     4.081000000    -4.687000000
C     2.938000000     5.124000000    -3.904000000
C     2.476000000     6.293000000    -4.485000000
H     2.280000000     6.336000000    -5.554000000
C     2.087000000     7.348000000    -3.725000000
H     1.700000000     8.234000000    -4.222000000
C     2.349000000     7.299000000    -2.324000000
H     2.135000000     8.186000000    -1.732000000
C     2.826000000     6.107000000    -1.760000000
C     3.122000000     4.953000000    -2.554000000
H     3.539000000     4.013000000    -2.202000000
C     2.844000000     0.361000000     1.734000000
H     3.267000000     1.356000000     1.844000000
C     1.592000000     0.279000000     1.079000000
H     1.158000000     1.199000000     0.695000000
C     0.867000000    -0.887000000     0.830000000
H    -0.063000000    -0.823000000     0.333000000
C     1.443000000    -2.077000000     1.316000000
H     0.908000000    -3.009000000     1.154000000
C     2.656000000    -2.102000000     1.986000000
H     2.951000000    -3.128000000     2.186000000
C     3.411000000    -0.914000000     2.225000000
C     4.613000000    -0.918000000     3.165000000
O     4.999000000    -2.028000000     3.605000000
O     5.241000000     0.097000000     3.299000000
O     5.939000000     0.985000000     0.808000000
H     5.583000000     0.645000000     1.629000000
H     6.558000000     1.663000000     1.077000000
O     5.624000000    -1.623000000     6.531000000
H     5.872000000    -1.703000000     5.610000000
H     4.762000000    -1.206000000     6.511000000
O     5.717000000     1.394000000     7.914000000
H     5.750000000     1.374000000     6.958000000
H     5.237000000     2.195000000     8.121000000
O     5.705000000    -1.796000000    -0.918000000
H     5.787000000    -0.845000000    -0.845000000
H     4.767000000    -1.947000000    -1.041000000
O    10.364000000    -1.476000000     1.755000000
H    10.808000000    -1.370000000     0.913000000
H     9.861000000    -2.285000000     1.660000000
O     6.347000000     1.520000000     5.111000000
H     6.235000000     2.381000000     4.707000000
H     5.742000000     0.952000000     4.634000000
O     8.681000000     1.744000000     3.514000000
H     9.390000000     1.203000000     3.862000000
H     7.906000000     1.467000000     4.003000000
O     6.322000000     4.031000000     4.295000000
H     6.845000000     4.804000000     4.083000000
H     5.418000000     4.301000000     4.128000000
O     7.807000000    -1.122000000     2.937000000
H     7.771000000    -0.441000000     2.266000000
H     6.927000000    -1.136000000     3.312000000
O     5.519000000    -3.650000000     1.249000000
H     5.233000000    -2.863000000     1.712000000
H     5.844000000    -3.329000000     0.408000000
O     7.096000000    -6.178000000     5.642000000
H     7.204000000    -5.558000000     6.364000000
H     6.390000000    -5.808000000     5.113000000
O     6.760000000     1.301000000    -1.826000000
H     6.497000000     1.486000000    -0.925000000
H     7.480000000     0.677000000    -1.743000000
O     5.311000000    -4.717000000     4.178000000
H     4.466000000    -4.715000000     4.628000000
H     5.395000000    -3.832000000     3.823000000
O     6.036000000    -6.230000000     1.829000000
H     5.925000000    -5.998000000     2.751000000
H     5.967000000    -5.397000000     1.362000000
O     8.748000000    -3.504000000     1.835000000
H     8.926000000    -4.188000000     2.482000000
H     8.345000000    -2.797000000     2.339000000
O     8.942000000    -1.660000000    -0.911000000
H     9.120000000    -0.761000000    -0.637000000
H     8.598000000    -2.086000000    -0.126000000
O     8.423000000    -0.433000000     6.735000000
H     8.236000000    -0.171000000     7.637000000
H     7.672000000    -0.115000000     6.233000000
O     7.695000000     2.957000000     1.119000000
H     8.027000000     2.616000000     1.949000000
H     8.041000000     3.848000000     1.070000000
O     7.575000000    -3.841000000     7.243000000
H     7.796000000    -3.986000000     8.163000000
H     7.110000000    -3.004000000     7.238000000
