215
-1447.70101
C    -1.022000000    -3.093000000     4.452000000
H    -1.641000000    -3.750000000     3.846000000
C    -1.242000000    -1.731000000     4.490000000
C    -0.427000000    -0.828000000     5.216000000
H    -0.583000000     0.248000000     5.193000000
C    -2.348000000    -1.108000000     3.534000000
O    -3.532000000    -1.973000000     3.393000000
H    -2.016000000    -0.920000000     2.502000000
O    -2.762000000     0.126000000     3.976000000
C    -2.930000000     1.194000000     3.113000000
C    -1.988000000     2.187000000     3.082000000
H    -1.185000000     2.238000000     3.812000000
C    -2.096000000     3.251000000     2.150000000
O    -1.000000000     4.102000000     2.048000000
C    -3.178000000     3.254000000     1.290000000
C    -3.243000000     4.320000000     0.236000000
H    -4.271000000     4.597000000    -0.006000000
C    -2.473000000     4.100000000    -1.041000000
C    -3.050000000     3.419000000    -2.123000000
H    -4.096000000     3.129000000    -2.080000000
H    -2.847000000     5.257000000     0.635000000
C    -4.240000000     2.284000000     1.390000000
H    -5.056000000     2.358000000     0.676000000
C    -4.092000000     1.253000000     2.317000000
C    -5.100000000     0.181000000     2.353000000
H    -5.998000000     0.578000000     1.874000000
H    -5.402000000    -0.172000000     3.342000000
C    -4.696000000    -1.002000000     1.512000000
C    -4.917000000    -1.066000000     0.116000000
H    -5.399000000    -0.222000000    -0.371000000
C    -4.030000000    -2.070000000     2.164000000
C    -3.434000000    -3.038000000     1.255000000
H    -2.635000000    -3.712000000     1.555000000
C    -3.661000000    -3.034000000    -0.129000000
O    -2.800000000    -3.859000000    -0.855000000
C    -1.666000000    -3.235000000    -1.407000000
C    -0.471000000    -4.068000000    -1.211000000
C     0.638000000    -3.864000000    -2.056000000
H     0.646000000    -3.042000000    -2.767000000
C    -0.363000000    -5.069000000    -0.241000000
H    -1.208000000    -5.214000000     0.427000000
O    -1.917000000    -3.107000000    -2.832000000
H    -1.515000000    -2.242000000    -0.958000000
C    -4.457000000    -2.081000000    -0.696000000
C    -4.573000000    -2.037000000    -2.259000000
H    -5.577000000    -1.685000000    -2.504000000
H    -4.560000000    -3.060000000    -2.639000000
C    -3.572000000    -1.284000000    -3.058000000
C    -3.718000000     0.034000000    -3.388000000
H    -4.616000000     0.577000000    -3.106000000
C    -2.368000000    -1.911000000    -3.407000000
C    -1.424000000    -1.251000000    -4.230000000
H    -0.473000000    -1.768000000    -4.325000000
C    -1.631000000     0.112000000    -4.541000000
O    -0.497000000     0.811000000    -4.977000000
C     0.310000000     1.641000000    -4.076000000
C     1.784000000     1.500000000    -4.292000000
C     2.212000000     0.313000000    -4.924000000
H     1.505000000    -0.468000000    -5.192000000
C     2.747000000     2.368000000    -3.829000000
H     2.488000000     3.156000000    -3.126000000
O    -0.080000000     3.012000000    -4.157000000
H     0.069000000     1.286000000    -3.063000000
C    -2.816000000     0.754000000    -4.156000000
C    -2.887000000     2.292000000    -4.377000000
H    -3.932000000     2.607000000    -4.424000000
H    -2.421000000     2.640000000    -5.301000000
C    -2.300000000     3.096000000    -3.211000000
C    -0.912000000     3.443000000    -3.148000000
C    -0.370000000     4.224000000    -2.154000000
H     0.665000000     4.554000000    -2.169000000
C    -1.189000000     4.581000000    -1.093000000
O    -0.525000000     5.074000000    -0.010000000
C    -0.066000000     4.055000000     0.924000000
H    -0.213000000     3.040000000     0.527000000
C     1.393000000     4.116000000     1.374000000
C     1.693000000     3.459000000     2.533000000
H     0.931000000     2.894000000     3.064000000
C     2.424000000     4.829000000     0.738000000
H     2.160000000     5.242000000    -0.232000000
C     3.751000000     4.738000000     1.104000000
O     4.793000000     5.312000000     0.385000000
C     4.022000000     4.080000000     2.256000000
H     5.041000000     4.083000000     2.635000000
C     3.020000000     3.407000000     2.972000000
O     3.375000000     2.654000000     4.108000000
C     2.637000000     2.276000000     5.247000000
C     2.278000000     0.920000000     5.533000000
H     2.634000000     0.092000000     4.924000000
C     2.190000000     3.288000000     6.077000000
H     2.407000000     4.305000000     5.760000000
C     1.388000000     3.041000000     7.188000000
H     0.956000000     3.811000000     7.822000000
C     1.092000000     1.706000000     7.471000000
H     0.545000000     1.456000000     8.376000000
C     1.575000000     0.634000000     6.679000000
O     1.257000000    -0.657000000     6.953000000
C     0.554000000    -1.393000000     6.028000000
C     0.740000000    -2.787000000     6.041000000
H     1.541000000    -3.194000000     6.652000000
C    -0.077000000    -3.616000000     5.257000000
O    -0.026000000    -4.943000000     5.369000000
C    -0.107000000    -5.926000000     4.348000000
C     0.324000000    -5.675000000     3.036000000
H     0.752000000    -4.722000000     2.733000000
C    -0.700000000    -7.170000000     4.741000000
H    -1.154000000    -7.162000000     5.728000000
C    -0.663000000    -8.221000000     3.834000000
H    -1.064000000    -9.192000000     4.113000000
C    -0.188000000    -8.075000000     2.564000000
H    -0.138000000    -9.009000000     2.009000000
C     0.340000000    -6.823000000     2.175000000
O     1.008000000    -6.671000000     0.943000000
C     0.833000000    -5.729000000    -0.021000000
C     1.915000000    -5.544000000    -0.897000000
H     2.812000000    -6.111000000    -0.662000000
C     1.871000000    -4.595000000    -1.886000000
O     2.944000000    -4.518000000    -2.698000000
C     2.763000000    -3.959000000    -3.908000000
C     3.439000000    -2.765000000    -4.217000000
H     4.139000000    -2.284000000    -3.538000000
C     1.788000000    -4.466000000    -4.759000000
H     1.073000000    -5.234000000    -4.475000000
C     1.691000000    -3.918000000    -5.985000000
H     0.832000000    -4.230000000    -6.575000000
C     2.365000000    -2.800000000    -6.353000000
H     2.209000000    -2.427000000    -7.362000000
C     3.252000000    -2.215000000    -5.460000000
O     3.962000000    -1.084000000    -5.784000000
C     3.593000000     0.065000000    -5.126000000
C     4.534000000     1.061000000    -4.742000000
H     5.591000000     0.810000000    -4.706000000
C     4.123000000     2.225000000    -4.099000000
O     4.979000000     3.255000000    -3.855000000
C     4.772000000     4.361000000    -3.111000000
C     4.462000000     5.555000000    -3.790000000
H     4.389000000     5.617000000    -4.873000000
C     4.245000000     6.708000000    -3.034000000
H     4.176000000     7.692000000    -3.491000000
C     4.313000000     6.610000000    -1.620000000
H     4.247000000     7.484000000    -0.977000000
C     4.625000000     5.426000000    -0.974000000
C     4.874000000     4.289000000    -1.735000000
H     5.088000000     3.301000000    -1.335000000
C     2.557000000     0.809000000     0.637000000
H     3.171000000     1.682000000     0.433000000
C     1.337000000     0.670000000    -0.001000000
H     0.949000000     1.422000000    -0.684000000
C     0.517000000    -0.346000000     0.361000000
H    -0.569000000    -0.476000000     0.085000000
C     0.915000000    -1.225000000     1.363000000
H     0.181000000    -1.863000000     1.850000000
C     2.228000000    -1.159000000     1.895000000
H     2.327000000    -1.697000000     2.834000000
C     3.027000000    -0.145000000     1.503000000
C     4.445000000    -0.005000000     2.129000000
O     4.727000000    -0.718000000     3.015000000
O     5.283000000     0.668000000     1.598000000
O     7.309000000    -1.201000000     1.578000000
H     6.627000000    -0.537000000     1.683000000
H     8.089000000    -0.806000000     1.966000000
O     7.971000000     3.921000000     4.259000000
H     7.143000000     4.027000000     4.728000000
H     7.714000000     3.779000000     3.348000000
O     4.742000000    -1.180000000     7.480000000
H     3.969000000    -0.649000000     7.671000000
H     4.519000000    -1.644000000     6.673000000
O     3.048000000    -4.883000000     4.149000000
H     2.858000000    -5.205000000     5.030000000
H     3.524000000    -5.600000000     3.730000000
O     4.158000000    -2.395000000     5.107000000
H     4.400000000    -1.784000000     4.411000000
H     3.557000000    -3.011000000     4.687000000
O     5.895000000     1.635000000     6.972000000
H     5.955000000     1.481000000     6.029000000
H     5.135000000     1.124000000     7.250000000
O     3.705000000    -1.091000000    -1.400000000
H     3.505000000    -0.463000000    -2.094000000
H     3.178000000    -0.802000000    -0.655000000
O     8.531000000    -2.685000000     4.876000000
H     7.836000000    -3.312000000     5.079000000
H     8.952000000    -3.040000000     4.094000000
O     6.323000000     1.161000000     4.243000000
H     6.346000000     1.648000000     3.419000000
H     5.755000000     0.412000000     4.062000000
O     7.130000000     2.517000000     1.883000000
H     7.722000000     2.387000000     1.142000000
H     6.300000000     2.138000000     1.595000000
O     5.580000000    -6.011000000     3.407000000
H     5.729000000    -5.575000000     2.568000000
H     5.686000000    -5.318000000     4.059000000
O     5.562000000     1.128000000    -0.971000000
H     5.602000000     0.851000000    -0.056000000
H     5.061000000     0.440000000    -1.408000000
O     5.663000000    -2.804000000    -1.126000000
H     5.920000000    -2.619000000    -0.223000000
H     4.968000000    -2.173000000    -1.311000000
O     6.101000000    -3.599000000     1.835000000
H     5.364000000    -3.046000000     1.575000000
H     6.713000000    -3.000000000     2.260000000
O     9.198000000     2.032000000    -0.086000000
H     8.982000000     2.705000000    -0.731000000
H    10.095000000     1.775000000    -0.299000000
O     6.279000000    -4.391000000     5.970000000
H     6.512000000    -4.207000000     6.880000000
H     5.527000000    -3.824000000     5.796000000
O     7.612000000     2.133000000    -2.507000000
H     7.678000000     3.050000000    -2.240000000
H     6.842000000     1.803000000    -2.043000000
O     5.939000000     4.270000000     6.063000000
H     5.893000000     4.766000000     6.881000000
H     5.305000000     3.562000000     6.175000000
O     8.945000000    -0.105000000     3.616000000
H     8.844000000    -0.857000000     4.200000000
H     8.275000000     0.514000000     3.904000000
