215
-1455.93129
C    -0.461000000    -2.516000000     4.472000000
H    -1.000000000    -3.294000000     3.938000000
C    -0.822000000    -1.178000000     4.422000000
C    -0.208000000    -0.190000000     5.103000000
H    -0.556000000     0.824000000     4.926000000
C    -2.001000000    -0.804000000     3.523000000
O    -2.942000000    -1.913000000     3.410000000
H    -1.643000000    -0.531000000     2.520000000
O    -2.754000000     0.284000000     4.132000000
C    -3.182000000     1.344000000     3.402000000
C    -2.394000000     2.508000000     3.277000000
H    -1.602000000     2.641000000     4.010000000
C    -2.589000000     3.382000000     2.230000000
O    -1.602000000     4.276000000     2.108000000
C    -3.560000000     3.245000000     1.233000000
C    -3.696000000     4.189000000     0.150000000
H    -4.745000000     4.346000000    -0.113000000
C    -2.861000000     3.802000000    -1.055000000
C    -3.453000000     3.009000000    -2.072000000
H    -4.524000000     2.852000000    -1.968000000
H    -3.421000000     5.144000000     0.602000000
C    -4.294000000     2.040000000     1.321000000
H    -5.161000000     1.974000000     0.668000000
C    -4.099000000     1.105000000     2.337000000
C    -5.008000000    -0.134000000     2.323000000
H    -5.961000000     0.102000000     1.845000000
H    -5.222000000    -0.467000000     3.340000000
C    -4.280000000    -1.190000000     1.535000000
C    -4.520000000    -1.366000000     0.187000000
H    -4.987000000    -0.619000000    -0.450000000
C    -3.475000000    -2.152000000     2.175000000
C    -2.866000000    -3.208000000     1.509000000
H    -2.259000000    -3.930000000     2.049000000
C    -3.129000000    -3.413000000     0.176000000
O    -2.312000000    -4.298000000    -0.532000000
C    -1.272000000    -3.769000000    -1.414000000
C     0.026000000    -4.508000000    -1.352000000
C     0.823000000    -4.684000000    -2.475000000
H     0.540000000    -4.392000000    -3.483000000
C     0.474000000    -4.938000000    -0.094000000
H    -0.148000000    -4.712000000     0.769000000
O    -1.731000000    -3.732000000    -2.747000000
H    -1.003000000    -2.730000000    -1.170000000
C    -3.987000000    -2.514000000    -0.488000000
C    -4.378000000    -2.803000000    -1.958000000
H    -5.380000000    -2.389000000    -2.083000000
H    -4.465000000    -3.825000000    -2.334000000
C    -3.442000000    -1.956000000    -2.813000000
C    -3.805000000    -0.653000000    -3.169000000
H    -4.737000000    -0.227000000    -2.806000000
C    -2.254000000    -2.537000000    -3.295000000
C    -1.486000000    -1.853000000    -4.185000000
H    -0.671000000    -2.385000000    -4.669000000
C    -1.781000000    -0.516000000    -4.414000000
O    -0.790000000     0.216000000    -5.038000000
C    -0.012000000     1.100000000    -4.136000000
C     1.476000000     1.058000000    -4.497000000
C     1.946000000    -0.066000000    -5.104000000
H     1.342000000    -0.914000000    -5.415000000
C     2.329000000     2.056000000    -3.957000000
H     1.928000000     2.979000000    -3.547000000
O    -0.520000000     2.416000000    -4.242000000
H    -0.249000000     0.729000000    -3.128000000
C    -2.928000000     0.105000000    -3.893000000
C    -3.327000000     1.528000000    -4.172000000
H    -4.394000000     1.761000000    -4.159000000
H    -3.037000000     1.819000000    -5.183000000
C    -2.673000000     2.501000000    -3.106000000
C    -1.375000000     2.917000000    -3.213000000
C    -0.770000000     3.622000000    -2.257000000
H     0.290000000     3.854000000    -2.310000000
C    -1.517000000     4.089000000    -1.187000000
O    -0.836000000     4.639000000    -0.103000000
C    -0.587000000     3.965000000     1.124000000
H    -0.537000000     2.893000000     0.883000000
C     0.841000000     4.461000000     1.640000000
C     1.188000000     4.279000000     2.960000000
H     0.476000000     3.848000000     3.659000000
C     1.741000000     5.038000000     0.716000000
H     1.397000000     5.365000000    -0.262000000
C     3.035000000     5.369000000     1.168000000
O     4.023000000     5.720000000     0.294000000
C     3.431000000     4.946000000     2.449000000
H     4.469000000     5.034000000     2.759000000
C     2.532000000     4.400000000     3.295000000
O     3.033000000     4.048000000     4.549000000
C     2.284000000     3.530000000     5.563000000
C     2.263000000     2.190000000     5.767000000
H     2.747000000     1.449000000     5.136000000
C     1.666000000     4.432000000     6.441000000
H     1.627000000     5.480000000     6.156000000
C     1.041000000     3.872000000     7.584000000
H     0.573000000     4.509000000     8.330000000
C     1.023000000     2.471000000     7.789000000
H     0.501000000     1.997000000     8.616000000
C     1.573000000     1.630000000     6.828000000
O     1.407000000     0.252000000     6.931000000
C     0.784000000    -0.614000000     6.056000000
C     1.209000000    -1.939000000     6.145000000
H     1.906000000    -2.279000000     6.906000000
C     0.555000000    -2.970000000     5.382000000
O     0.856000000    -4.333000000     5.550000000
C     0.672000000    -5.167000000     4.514000000
C     1.538000000    -5.093000000     3.467000000
H     2.291000000    -4.311000000     3.408000000
C    -0.255000000    -6.221000000     4.590000000
H    -0.860000000    -6.386000000     5.478000000
C    -0.329000000    -7.133000000     3.549000000
H    -0.966000000    -8.009000000     3.638000000
C     0.521000000    -7.003000000     2.444000000
H     0.522000000    -7.719000000     1.626000000
C     1.436000000    -5.965000000     2.407000000
O     2.171000000    -5.773000000     1.284000000
C     1.678000000    -5.460000000     0.017000000
C     2.535000000    -5.603000000    -1.088000000
H     3.554000000    -5.963000000    -0.969000000
C     2.163000000    -5.137000000    -2.302000000
O     3.050000000    -5.273000000    -3.320000000
C     2.922000000    -4.531000000    -4.424000000
C     3.305000000    -3.191000000    -4.447000000
H     3.658000000    -2.647000000    -3.575000000
C     2.579000000    -5.227000000    -5.593000000
H     2.285000000    -6.273000000    -5.572000000
C     2.640000000    -4.527000000    -6.784000000
H     2.409000000    -5.057000000    -7.705000000
C     3.236000000    -3.306000000    -6.859000000
H     3.413000000    -2.973000000    -7.879000000
C     3.531000000    -2.592000000    -5.689000000
O     3.938000000    -1.303000000    -5.841000000
C     3.349000000    -0.191000000    -5.196000000
C     4.193000000     0.787000000    -4.693000000
H     5.256000000     0.646000000    -4.873000000
C     3.710000000     1.922000000    -4.050000000
O     4.548000000     3.023000000    -3.576000000
C     4.092000000     4.112000000    -3.039000000
C     3.833000000     5.237000000    -3.904000000
H     3.939000000     5.066000000    -4.972000000
C     3.498000000     6.430000000    -3.318000000
H     3.118000000     7.219000000    -3.961000000
C     3.616000000     6.620000000    -1.957000000
H     3.479000000     7.615000000    -1.540000000
C     3.857000000     5.527000000    -1.066000000
C     4.018000000     4.268000000    -1.615000000
H     4.254000000     3.420000000    -0.976000000
C     2.644000000     1.369000000     0.651000000
H     3.291000000     2.183000000     0.966000000
C     1.571000000     1.523000000    -0.208000000
H     1.298000000     2.513000000    -0.566000000
C     0.735000000     0.478000000    -0.437000000
H    -0.162000000     0.442000000    -1.061000000
C     1.000000000    -0.797000000     0.064000000
H     0.376000000    -1.641000000    -0.217000000
C     2.020000000    -0.954000000     0.958000000
H     2.229000000    -1.863000000     1.516000000
C     2.911000000     0.104000000     1.261000000
C     4.139000000    -0.028000000     2.119000000
O     4.137000000    -1.056000000     2.750000000
O     5.157000000     0.661000000     1.965000000
O     7.236000000    -1.206000000     2.255000000
H     6.356000000    -0.832000000     2.290000000
H     7.361000000    -1.607000000     3.115000000
O     3.969000000    -0.584000000     8.458000000
H     3.340000000    -0.323000000     7.785000000
H     4.726000000    -0.903000000     7.968000000
O     4.071000000    -3.836000000     5.526000000
H     4.086000000    -4.539000000     6.176000000
H     3.146000000    -3.742000000     5.297000000
O     4.417000000    -0.318000000     5.350000000
H     4.191000000    -0.657000000     4.484000000
H     5.106000000    -0.903000000     5.664000000
O     6.115000000     1.332000000     6.918000000
H     5.474000000     0.961000000     6.311000000
H     6.474000000     2.088000000     6.454000000
O     3.536000000    -0.705000000    -1.794000000
H     3.578000000     0.118000000    -2.281000000
H     2.889000000    -0.544000000    -1.107000000
O     5.628000000     2.270000000     3.869000000
H     4.780000000     2.713000000     3.911000000
H     5.490000000     1.547000000     3.258000000
O     6.443000000     2.120000000     0.274000000
H     7.204000000     1.539000000     0.260000000
H     5.823000000     1.690000000     0.862000000
O     4.627000000    -6.438000000     2.828000000
H     4.031000000    -5.778000000     2.474000000
H     5.110000000    -5.981000000     3.516000000
O     5.332000000    -2.577000000    -0.740000000
H     6.122000000    -2.079000000    -0.951000000
H     4.615000000    -1.960000000    -0.885000000
O     7.894000000    -1.432000000    -2.366000000
H     7.867000000    -0.478000000    -2.285000000
H     7.950000000    -1.591000000    -3.308000000
O     4.590000000    -3.525000000     1.785000000
H     4.441000000    -2.635000000     2.104000000
H     5.177000000    -3.416000000     1.037000000
O     9.913000000     0.800000000     3.987000000
H     9.789000000    -0.023000000     4.460000000
H     9.069000000     1.246000000     4.056000000
O     9.236000000     0.381000000     1.046000000
H     8.428000000     0.011000000     1.402000000
H     9.809000000     0.479000000     1.806000000
O     6.530000000    -4.047000000     3.751000000
H     6.168000000    -3.540000000     4.478000000
H     5.873000000    -3.976000000     3.059000000
O     6.933000000    -5.206000000    -1.002000000
H     7.378000000    -5.412000000    -0.181000000
H     6.425000000    -4.418000000    -0.808000000
O     8.038000000     3.381000000     3.369000000
H     7.711000000     4.050000000     2.768000000
H     7.300000000     2.784000000     3.487000000
O     6.807000000     4.640000000     1.152000000
H     6.431000000     5.099000000     0.402000000
H     6.559000000     3.725000000     1.023000000
O     6.359000000    -2.179000000     6.088000000
H     5.532000000    -2.655000000     6.017000000
H     6.827000000    -2.616000000     6.800000000
