215
-1467.34907
C    -0.073000000    -1.188000000     5.274000000
H    -0.531000000    -2.167000000     5.159000000
C    -0.629000000     0.040000000     4.872000000
C     0.069000000     1.199000000     5.098000000
H    -0.323000000     2.118000000     4.671000000
C    -1.767000000     0.027000000     3.872000000
O    -2.617000000    -1.155000000     4.081000000
H    -1.357000000    -0.071000000     2.856000000
O    -2.462000000     1.264000000     3.983000000
C    -2.974000000     1.826000000     2.872000000
C    -2.368000000     2.959000000     2.404000000
H    -1.541000000     3.418000000     2.939000000
C    -2.722000000     3.537000000     1.210000000
O    -1.999000000     4.666000000     0.803000000
C    -3.825000000     3.155000000     0.487000000
C    -4.195000000     3.651000000    -0.871000000
H    -5.233000000     3.356000000    -1.042000000
C    -3.221000000     3.123000000    -1.913000000
C    -3.672000000     2.061000000    -2.642000000
H    -4.635000000     1.631000000    -2.378000000
H    -4.199000000     4.741000000    -0.942000000
C    -4.566000000     2.024000000     1.026000000
H    -5.465000000     1.709000000     0.504000000
C    -4.137000000     1.386000000     2.251000000
C    -4.887000000     0.133000000     2.823000000
H    -5.916000000     0.162000000     2.459000000
H    -4.930000000     0.224000000     3.910000000
C    -4.256000000    -1.144000000     2.326000000
C    -4.659000000    -1.710000000     1.094000000
H    -5.542000000    -1.252000000     0.655000000
C    -3.236000000    -1.804000000     2.982000000
C    -2.603000000    -2.941000000     2.484000000
H    -1.932000000    -3.517000000     3.118000000
C    -2.881000000    -3.420000000     1.187000000
O    -2.069000000    -4.378000000     0.669000000
C    -1.261000000    -4.052000000    -0.403000000
C     0.110000000    -4.655000000    -0.183000000
C     0.954000000    -5.207000000    -1.172000000
H     0.460000000    -5.306000000    -2.136000000
C     0.572000000    -4.703000000     1.186000000
H     0.028000000    -4.184000000     1.971000000
O    -1.866000000    -4.466000000    -1.571000000
H    -1.031000000    -2.977000000    -0.458000000
C    -3.948000000    -2.769000000     0.561000000
C    -4.351000000    -3.194000000    -0.890000000
H    -5.350000000    -2.804000000    -1.096000000
H    -4.382000000    -4.278000000    -1.023000000
C    -3.498000000    -2.741000000    -2.027000000
C    -3.719000000    -1.505000000    -2.624000000
H    -4.584000000    -0.907000000    -2.349000000
C    -2.279000000    -3.426000000    -2.332000000
C    -1.308000000    -2.856000000    -3.173000000
H    -0.342000000    -3.311000000    -3.377000000
C    -1.663000000    -1.698000000    -3.871000000
O    -0.743000000    -1.046000000    -4.658000000
C    -0.088000000     0.041000000    -4.040000000
C     1.423000000    -0.146000000    -4.294000000
C     2.028000000    -1.415000000    -4.428000000
H     1.454000000    -2.317000000    -4.234000000
C     2.293000000     0.966000000    -4.384000000
H     1.828000000     1.928000000    -4.189000000
O    -0.574000000     1.309000000    -4.480000000
H    -0.348000000    -0.042000000    -2.974000000
C    -2.795000000    -0.988000000    -3.600000000
C    -3.186000000     0.235000000    -4.385000000
H    -4.270000000     0.265000000    -4.509000000
H    -2.695000000     0.276000000    -5.359000000
C    -2.815000000     1.423000000    -3.555000000
C    -1.582000000     1.956000000    -3.744000000
C    -1.122000000     3.095000000    -3.102000000
H    -0.121000000     3.483000000    -3.268000000
C    -1.929000000     3.660000000    -2.163000000
O    -1.397000000     4.704000000    -1.382000000
C    -0.915000000     4.349000000    -0.138000000
H    -0.775000000     3.279000000     0.073000000
C     0.377000000     5.080000000     0.160000000
C     0.819000000     5.287000000     1.465000000
H     0.046000000     5.276000000     2.228000000
C     1.314000000     5.112000000    -0.865000000
H     0.996000000     4.855000000    -1.872000000
C     2.663000000     5.327000000    -0.561000000
O     3.661000000     5.359000000    -1.507000000
C     3.109000000     5.587000000     0.760000000
H     4.182000000     5.691000000     0.904000000
C     2.179000000     5.465000000     1.739000000
O     2.552000000     5.623000000     3.054000000
C     1.874000000     5.249000000     4.177000000
C     2.143000000     3.994000000     4.626000000
H     2.859000000     3.424000000     4.040000000
C     0.966000000     6.072000000     4.810000000
H     0.611000000     6.995000000     4.358000000
C     0.364000000     5.613000000     5.967000000
H    -0.475000000     6.099000000     6.459000000
C     0.651000000     4.320000000     6.413000000
H    -0.007000000     3.965000000     7.203000000
C     1.537000000     3.500000000     5.777000000
O     1.817000000     2.274000000     6.355000000
C     1.207000000     1.133000000     5.948000000
C     1.660000000    -0.098000000     6.425000000
H     2.489000000    -0.148000000     7.127000000
C     1.074000000    -1.258000000     6.038000000
O     1.621000000    -2.455000000     6.429000000
C     1.448000000    -3.675000000     5.809000000
C     2.135000000    -3.813000000     4.584000000
H     2.948000000    -3.175000000     4.245000000
C     0.517000000    -4.554000000     6.287000000
H    -0.058000000    -4.445000000     7.203000000
C     0.153000000    -5.687000000     5.512000000
H    -0.689000000    -6.303000000     5.817000000
C     0.904000000    -5.914000000     4.301000000
H     0.766000000    -6.874000000     3.809000000
C     1.790000000    -4.931000000     3.787000000
O     2.497000000    -5.141000000     2.620000000
C     1.910000000    -5.107000000     1.341000000
C     2.728000000    -5.591000000     0.344000000
H     3.738000000    -5.947000000     0.532000000
C     2.230000000    -5.582000000    -0.928000000
O     2.887000000    -6.192000000    -1.968000000
C     3.075000000    -5.767000000    -3.297000000
C     3.304000000    -4.390000000    -3.497000000
H     3.563000000    -3.644000000    -2.750000000
C     3.001000000    -6.593000000    -4.414000000
H     2.944000000    -7.667000000    -4.257000000
C     3.015000000    -6.115000000    -5.689000000
H     3.024000000    -6.786000000    -6.543000000
C     3.198000000    -4.760000000    -5.869000000
H     3.189000000    -4.314000000    -6.860000000
C     3.405000000    -3.905000000    -4.799000000
O     3.922000000    -2.692000000    -5.095000000
C     3.372000000    -1.505000000    -4.839000000
C     4.162000000    -0.401000000    -4.993000000
H     5.221000000    -0.496000000    -5.216000000
C     3.607000000     0.897000000    -4.808000000
O     4.375000000     2.075000000    -4.990000000
C     3.970000000     3.312000000    -4.545000000
C     3.769000000     4.294000000    -5.502000000
H     3.935000000     4.114000000    -6.562000000
C     3.494000000     5.595000000    -5.161000000
H     3.249000000     6.327000000    -5.926000000
C     3.484000000     5.944000000    -3.808000000
H     3.002000000     6.893000000    -3.585000000
C     3.706000000     4.977000000    -2.823000000
C     3.905000000     3.653000000    -3.213000000
H     4.024000000     2.905000000    -2.433000000
C     1.938000000     1.303000000     0.565000000
H     2.565000000     2.150000000     0.299000000
C     0.765000000     1.043000000    -0.102000000
H     0.531000000     1.588000000    -1.013000000
C     0.016000000    -0.084000000     0.219000000
H    -0.857000000    -0.324000000    -0.352000000
C     0.368000000    -0.879000000     1.304000000
H    -0.235000000    -1.776000000     1.428000000
C     1.527000000    -0.596000000     2.035000000
H     1.780000000    -1.306000000     2.818000000
C     2.308000000     0.524000000     1.661000000
C     3.620000000     0.859000000     2.340000000
O     3.852000000     0.385000000     3.407000000
O     4.497000000     1.489000000     1.785000000
O     7.569000000     1.541000000     0.289000000
H     7.960000000     1.289000000    -0.547000000
H     7.002000000     0.804000000     0.519000000
O     5.616000000    -0.710000000     8.167000000
H     5.503000000    -0.600000000     7.223000000
H     4.899000000    -1.289000000     8.428000000
O     6.578000000    -2.237000000    -1.342000000
H     6.111000000    -2.456000000    -0.535000000
H     6.480000000    -1.289000000    -1.426000000
O     4.903000000    -0.935000000     5.567000000
H     5.367000000    -1.738000000     5.332000000
H     4.548000000    -0.613000000     4.738000000
O     5.664000000     3.814000000     2.777000000
H     5.245000000     2.978000000     2.576000000
H     5.844000000     4.203000000     1.921000000
O     8.327000000    -0.560000000     4.249000000
H     8.871000000    -1.306000000     3.995000000
H     8.778000000    -0.180000000     5.003000000
O     6.392000000    -0.758000000     2.282000000
H     5.770000000    -0.055000000     2.471000000
H     7.010000000    -0.734000000     3.013000000
O     2.956000000    -1.894000000    -0.518000000
H     3.489000000    -2.298000000     0.167000000
H     2.201000000    -1.534000000    -0.053000000
O     8.427000000     2.790000000     2.850000000
H     8.348000000     2.853000000     1.898000000
H     7.964000000     1.984000000     3.076000000
O     5.171000000    -2.726000000     1.042000000
H     5.195000000    -3.381000000     1.740000000
H     5.194000000    -1.887000000     1.501000000
O     5.444000000     3.327000000    -0.178000000
H     6.298000000     3.003000000    -0.466000000
H     5.131000000     2.663000000     0.436000000
O     5.479000000     5.671000000     4.832000000
H     5.803000000     5.289000000     5.648000000
H     5.665000000     5.008000000     4.167000000
O     3.911000000     2.506000000     8.387000000
H     4.269000000     2.475000000     7.500000000
H     3.003000000     2.222000000     8.289000000
O     5.206000000     0.083000000    -0.664000000
H     4.997000000     0.498000000     0.173000000
H     4.372000000    -0.274000000    -0.970000000
O     5.275000000    -4.945000000     2.943000000
H     4.323000000    -4.971000000     3.034000000
H     5.553000000    -5.851000000     3.071000000
O     6.858000000     3.763000000     6.440000000
H     6.396000000     3.021000000     6.050000000
H     6.944000000     3.533000000     7.365000000
O     4.883000000     1.922000000     5.772000000
H     5.304000000     1.139000000     5.417000000
H     4.181000000     2.118000000     5.152000000
O     8.507000000    -2.946000000     1.172000000
H     8.985000000    -2.420000000     0.531000000
H     7.589000000    -2.710000000     1.039000000
O     5.890000000    -3.363000000     5.063000000
H     6.707000000    -3.625000000     5.487000000
H     5.792000000    -3.976000000     4.334000000
