215
-1438.77450
C    -0.519000000    -1.772000000     5.331000000
H    -0.991000000    -2.640000000     4.879000000
C    -1.043000000    -0.526000000     5.080000000
C    -0.379000000     0.524000000     5.692000000
H    -0.515000000     1.465000000     5.165000000
C    -2.156000000    -0.315000000     4.082000000
O    -3.053000000    -1.373000000     4.046000000
H    -1.746000000    -0.234000000     3.064000000
O    -2.775000000     0.979000000     4.270000000
C    -3.078000000     1.753000000     3.151000000
C    -2.223000000     2.827000000     2.887000000
H    -1.394000000     2.930000000     3.582000000
C    -2.406000000     3.671000000     1.805000000
O    -1.337000000     4.542000000     1.441000000
C    -3.484000000     3.463000000     0.956000000
C    -3.654000000     4.337000000    -0.234000000
H    -4.723000000     4.335000000    -0.460000000
C    -2.929000000     3.772000000    -1.478000000
C    -3.491000000     2.796000000    -2.349000000
H    -4.540000000     2.540000000    -2.231000000
H    -3.383000000     5.387000000    -0.107000000
C    -4.331000000     2.369000000     1.203000000
H    -5.267000000     2.308000000     0.654000000
C    -4.158000000     1.540000000     2.298000000
C    -5.043000000     0.360000000     2.598000000
H    -6.072000000     0.493000000     2.257000000
H    -5.266000000     0.142000000     3.644000000
C    -4.372000000    -0.874000000     1.948000000
C    -4.739000000    -1.242000000     0.681000000
H    -5.504000000    -0.606000000     0.242000000
C    -3.492000000    -1.687000000     2.758000000
C    -2.852000000    -2.777000000     2.156000000
H    -2.020000000    -3.216000000     2.700000000
C    -3.079000000    -3.051000000     0.835000000
O    -2.324000000    -4.066000000     0.259000000
C    -1.394000000    -3.726000000    -0.685000000
C    -0.063000000    -4.465000000    -0.563000000
C     0.675000000    -4.857000000    -1.695000000
H     0.189000000    -4.886000000    -2.667000000
C     0.583000000    -4.497000000     0.706000000
H     0.170000000    -4.107000000     1.632000000
O    -1.895000000    -3.928000000    -1.976000000
H    -1.287000000    -2.631000000    -0.664000000
C    -4.124000000    -2.401000000     0.167000000
C    -4.457000000    -2.895000000    -1.227000000
H    -5.501000000    -2.897000000    -1.547000000
H    -4.319000000    -3.978000000    -1.242000000
C    -3.606000000    -2.301000000    -2.340000000
C    -3.974000000    -1.089000000    -2.865000000
H    -4.915000000    -0.649000000    -2.542000000
C    -2.363000000    -2.885000000    -2.662000000
C    -1.502000000    -2.182000000    -3.514000000
H    -0.583000000    -2.659000000    -3.847000000
C    -1.883000000    -0.941000000    -4.119000000
O    -0.916000000    -0.318000000    -4.864000000
C    -0.102000000     0.608000000    -4.136000000
C     1.354000000     0.289000000    -4.454000000
C     1.787000000    -0.916000000    -5.026000000
H     1.051000000    -1.602000000    -5.439000000
C     2.300000000     1.253000000    -3.978000000
H     1.932000000     2.167000000    -3.520000000
O    -0.538000000     1.924000000    -4.477000000
H    -0.434000000     0.415000000    -3.105000000
C    -3.096000000    -0.380000000    -3.730000000
C    -3.487000000     1.075000000    -4.229000000
H    -4.565000000     1.207000000    -4.342000000
H    -3.111000000     1.135000000    -5.253000000
C    -2.766000000     2.178000000    -3.401000000
C    -1.387000000     2.558000000    -3.584000000
C    -0.797000000     3.419000000    -2.707000000
H     0.254000000     3.653000000    -2.862000000
C    -1.563000000     4.059000000    -1.696000000
O    -0.950000000     4.874000000    -0.827000000
C    -0.468000000     4.198000000     0.376000000
H    -0.590000000     3.107000000     0.444000000
C     0.979000000     4.451000000     0.549000000
C     1.497000000     3.905000000     1.743000000
H     0.836000000     3.321000000     2.378000000
C     1.856000000     5.085000000    -0.362000000
H     1.503000000     5.488000000    -1.308000000
C     3.174000000     5.162000000    -0.067000000
O     4.036000000     5.832000000    -1.006000000
C     3.648000000     4.744000000     1.181000000
H     4.713000000     4.792000000     1.391000000
C     2.836000000     4.131000000     2.063000000
O     3.321000000     3.633000000     3.267000000
C     2.494000000     3.623000000     4.384000000
C     2.320000000     2.471000000     5.168000000
H     2.816000000     1.570000000     4.815000000
C     1.746000000     4.808000000     4.742000000
H     1.935000000     5.708000000     4.162000000
C     0.870000000     4.815000000     5.843000000
H     0.222000000     5.678000000     5.973000000
C     0.805000000     3.715000000     6.677000000
H     0.142000000     3.630000000     7.534000000
C     1.553000000     2.534000000     6.329000000
O     1.400000000     1.415000000     7.125000000
C     0.730000000     0.342000000     6.548000000
C     1.125000000    -0.881000000     6.823000000
H     2.069000000    -0.999000000     7.350000000
C     0.558000000    -1.941000000     6.188000000
O     1.157000000    -3.118000000     6.353000000
C     1.135000000    -4.173000000     5.398000000
C     1.835000000    -4.093000000     4.190000000
H     2.376000000    -3.191000000     3.915000000
C     0.329000000    -5.256000000     5.650000000
H    -0.255000000    -5.128000000     6.558000000
C     0.360000000    -6.412000000     4.862000000
H    -0.189000000    -7.297000000     5.173000000
C     1.016000000    -6.325000000     3.611000000
H     0.828000000    -7.119000000     2.893000000
C     1.808000000    -5.204000000     3.254000000
O     2.468000000    -5.117000000     2.052000000
C     1.801000000    -5.091000000     0.843000000
C     2.487000000    -5.561000000    -0.283000000
H     3.449000000    -6.066000000    -0.277000000
C     1.956000000    -5.388000000    -1.578000000
O     2.551000000    -6.019000000    -2.726000000
C     2.393000000    -5.369000000    -3.947000000
C     2.830000000    -3.989000000    -4.103000000
H     3.347000000    -3.517000000    -3.272000000
C     1.893000000    -6.057000000    -5.073000000
H     1.702000000    -7.124000000    -4.987000000
C     2.024000000    -5.469000000    -6.330000000
H     1.822000000    -6.113000000    -7.182000000
C     2.451000000    -4.133000000    -6.461000000
H     2.666000000    -3.709000000    -7.439000000
C     2.872000000    -3.456000000    -5.357000000
O     3.597000000    -2.340000000    -5.613000000
C     3.176000000    -1.165000000    -5.146000000
C     4.077000000    -0.180000000    -4.682000000
H     5.154000000    -0.320000000    -4.654000000
C     3.628000000     1.097000000    -4.207000000
O     4.542000000     2.000000000    -3.694000000
C     4.470000000     3.341000000    -3.661000000
C     4.362000000     4.065000000    -4.745000000
H     4.366000000     3.561000000    -5.709000000
C     4.139000000     5.424000000    -4.698000000
H     4.082000000     5.969000000    -5.637000000
C     4.067000000     6.099000000    -3.479000000
H     3.959000000     7.178000000    -3.413000000
C     4.152000000     5.320000000    -2.320000000
C     4.371000000     3.940000000    -2.390000000
H     4.259000000     3.343000000    -1.488000000
C     2.392000000     1.286000000    -0.021000000
H     2.986000000     1.862000000    -0.725000000
C     1.086000000     1.127000000    -0.427000000
H     0.688000000     1.521000000    -1.359000000
C     0.280000000     0.221000000     0.243000000
H    -0.718000000     0.178000000    -0.071000000
C     0.781000000    -0.430000000     1.400000000
H     0.151000000    -1.109000000     1.969000000
C     2.051000000    -0.093000000     1.967000000
H     2.382000000    -0.438000000     2.943000000
C     2.894000000     0.827000000     1.189000000
C     4.269000000     1.067000000     1.739000000
O     4.607000000     0.604000000     2.805000000
O     5.133000000     1.577000000     1.103000000
O     7.685000000    -1.348000000    -0.117000000
H     7.205000000    -0.633000000    -0.536000000
H     7.023000000    -1.812000000     0.396000000
O     5.002000000    -3.070000000    -0.912000000
H     5.257000000    -3.145000000     0.007000000
H     4.069000000    -2.856000000    -0.885000000
O     5.169000000    -3.640000000     4.430000000
H     6.087000000    -3.738000000     4.683000000
H     5.011000000    -4.361000000     3.820000000
O     6.116000000     2.583000000     3.684000000
H     5.649000000     3.398000000     3.501000000
H     5.559000000     1.899000000     3.312000000
O     7.553000000    -0.784000000     5.764000000
H     7.494000000     0.169000000     5.702000000
H     7.230000000    -0.987000000     6.642000000
O     4.503000000     5.979000000     5.155000000
H     5.074000000     5.358000000     5.608000000
H     3.879000000     5.430000000     4.682000000
O     6.819000000    -0.886000000     3.210000000
H     6.079000000    -0.281000000     3.260000000
H     7.115000000    -0.977000000     4.116000000
O     2.455000000    -2.386000000    -0.769000000
H     2.200000000    -1.504000000    -0.498000000
H     1.630000000    -2.868000000    -0.822000000
O     8.135000000     1.421000000     1.973000000
H     7.213000000     1.521000000     2.211000000
H     8.374000000     0.553000000     2.298000000
O    10.026000000     0.123000000     0.366000000
H     9.544000000     0.903000000     0.641000000
H     9.347000000    -0.525000000     0.178000000
O     6.299000000    -3.108000000     1.775000000
H     5.740000000    -3.720000000     2.254000000
H     6.329000000    -2.328000000     2.329000000
O     6.975000000     3.488000000     0.370000000
H     6.194000000     2.935000000     0.387000000
H     7.554000000     3.106000000     1.029000000
O     4.653000000     1.148000000     7.613000000
H     4.296000000     0.614000000     6.904000000
H     3.884000000     1.463000000     8.087000000
O     5.923000000     0.546000000    -1.437000000
H     5.438000000     0.881000000    -0.683000000
H     6.442000000     1.292000000    -1.738000000
O    10.086000000     3.114000000    -0.078000000
H     9.148000000     3.023000000    -0.241000000
H    10.140000000     3.522000000     0.787000000
O     7.836000000     2.082000000     5.667000000
H     7.195000000     2.219000000     4.969000000
H     8.685000000     2.176000000     5.235000000
O     4.248000000    -0.447000000     5.279000000
H     4.598000000    -1.336000000     5.220000000
H     4.365000000    -0.085000000     4.400000000
O     7.504000000     2.358000000    -2.732000000
H     6.743000000     2.684000000    -3.213000000
H     8.194000000     2.292000000    -3.392000000
O     6.330000000    -1.698000000    -3.022000000
H     6.343000000    -0.773000000    -2.775000000
H     5.924000000    -2.139000000    -2.277000000
