215
-1428.24845
C    -0.873000000    -3.112000000     3.991000000
H    -1.388000000    -3.739000000     3.268000000
C    -1.076000000    -1.742000000     4.068000000
C    -0.228000000    -1.046000000     4.908000000
H    -0.359000000     0.027000000     5.019000000
C    -2.145000000    -1.002000000     3.270000000
O    -3.306000000    -1.841000000     3.043000000
H    -1.584000000    -0.755000000     2.357000000
O    -2.580000000     0.204000000     3.905000000
C    -2.807000000     1.231000000     3.112000000
C    -1.958000000     2.302000000     3.232000000
H    -1.086000000     2.113000000     3.853000000
C    -2.045000000     3.290000000     2.317000000
O    -0.948000000     4.123000000     2.342000000
C    -3.106000000     3.361000000     1.389000000
C    -3.132000000     4.526000000     0.354000000
H    -4.163000000     4.789000000     0.108000000
C    -2.327000000     4.326000000    -0.951000000
C    -2.875000000     3.643000000    -2.078000000
H    -3.929000000     3.383000000    -2.137000000
H    -2.711000000     5.435000000     0.790000000
C    -4.093000000     2.402000000     1.390000000
H    -4.918000000     2.490000000     0.688000000
C    -3.925000000     1.273000000     2.257000000
C    -5.017000000     0.278000000     2.288000000
H    -5.911000000     0.664000000     1.794000000
H    -5.314000000    -0.005000000     3.300000000
C    -4.618000000    -0.879000000     1.340000000
C    -4.847000000    -0.832000000    -0.041000000
H    -5.170000000     0.101000000    -0.496000000
C    -3.772000000    -1.831000000     1.823000000
C    -3.326000000    -2.860000000     1.079000000
H    -2.685000000    -3.638000000     1.486000000
C    -3.640000000    -2.902000000    -0.287000000
O    -2.955000000    -3.720000000    -1.178000000
C    -1.734000000    -3.285000000    -1.863000000
C    -0.599000000    -4.341000000    -1.606000000
C     0.550000000    -4.266000000    -2.397000000
H     0.577000000    -3.421000000    -3.080000000
C    -0.681000000    -5.377000000    -0.735000000
H    -1.628000000    -5.529000000    -0.224000000
O    -2.067000000    -3.043000000    -3.260000000
H    -1.490000000    -2.310000000    -1.415000000
C    -4.341000000    -1.829000000    -0.877000000
C    -4.575000000    -1.721000000    -2.408000000
H    -5.486000000    -1.181000000    -2.676000000
H    -4.647000000    -2.704000000    -2.878000000
C    -3.456000000    -1.044000000    -3.180000000
C    -3.559000000     0.338000000    -3.369000000
H    -4.373000000     0.936000000    -2.965000000
C    -2.335000000    -1.711000000    -3.665000000
C    -1.307000000    -1.091000000    -4.336000000
H    -0.357000000    -1.570000000    -4.561000000
C    -1.411000000     0.285000000    -4.489000000
O    -0.282000000     0.917000000    -4.998000000
C     0.492000000     1.654000000    -4.004000000
C     2.002000000     1.486000000    -4.016000000
C     2.533000000     0.321000000    -4.617000000
H     1.766000000    -0.318000000    -5.047000000
C     2.883000000     2.399000000    -3.488000000
H     2.526000000     3.247000000    -2.911000000
O     0.159000000     3.110000000    -4.077000000
H     0.172000000     1.227000000    -3.042000000
C    -2.490000000     0.982000000    -4.041000000
C    -2.537000000     2.532000000    -4.343000000
H    -3.566000000     2.855000000    -4.512000000
H    -1.886000000     2.821000000    -5.171000000
C    -2.044000000     3.310000000    -3.139000000
C    -0.641000000     3.561000000    -3.133000000
C    -0.064000000     4.062000000    -1.934000000
H     1.000000000     4.107000000    -1.719000000
C    -0.921000000     4.477000000    -0.913000000
O    -0.226000000     4.940000000     0.221000000
C    -0.005000000     3.953000000     1.271000000
H    -0.240000000     2.980000000     0.816000000
C     1.378000000     4.090000000     1.943000000
C     1.618000000     3.553000000     3.161000000
H     0.838000000     3.150000000     3.802000000
C     2.399000000     4.669000000     1.206000000
H     2.138000000     5.051000000     0.223000000
C     3.673000000     4.752000000     1.764000000
O     4.649000000     5.376000000     1.051000000
C     3.924000000     4.280000000     3.015000000
H     4.925000000     4.450000000     3.403000000
C     2.844000000     3.782000000     3.774000000
O     3.080000000     3.433000000     5.027000000
C     2.349000000     2.656000000     5.863000000
C     2.419000000     1.276000000     5.745000000
H     3.155000000     0.886000000     5.046000000
C     1.518000000     3.207000000     6.806000000
H     1.516000000     4.291000000     6.896000000
C     0.696000000     2.342000000     7.555000000
H    -0.103000000     2.766000000     8.157000000
C     0.765000000     0.956000000     7.367000000
H     0.002000000     0.293000000     7.766000000
C     1.720000000     0.409000000     6.543000000
O     1.690000000    -0.992000000     6.358000000
C     0.814000000    -1.710000000     5.607000000
C     0.951000000    -3.101000000     5.539000000
H     1.862000000    -3.575000000     5.894000000
C     0.096000000    -3.823000000     4.702000000
O     0.318000000    -5.169000000     4.540000000
C    -0.325000000    -5.931000000     3.640000000
C     0.309000000    -6.156000000     2.380000000
H     1.260000000    -5.694000000     2.127000000
C    -1.408000000    -6.747000000     3.995000000
H    -1.787000000    -6.653000000     5.009000000
C    -1.971000000    -7.556000000     3.045000000
H    -2.790000000    -8.178000000     3.399000000
C    -1.348000000    -7.867000000     1.910000000
H    -1.855000000    -8.495000000     1.182000000
C    -0.182000000    -7.159000000     1.567000000
O     0.291000000    -7.328000000     0.254000000
C     0.378000000    -6.260000000    -0.530000000
C     1.508000000    -6.154000000    -1.289000000
H     2.406000000    -6.761000000    -1.199000000
C     1.620000000    -5.094000000    -2.220000000
O     2.729000000    -4.907000000    -2.968000000
C     2.742000000    -4.184000000    -4.158000000
C     3.675000000    -3.150000000    -4.328000000
H     4.395000000    -3.003000000    -3.527000000
C     1.799000000    -4.429000000    -5.158000000
H     1.076000000    -5.237000000    -5.077000000
C     1.766000000    -3.568000000    -6.250000000
H     1.046000000    -3.694000000    -7.054000000
C     2.630000000    -2.448000000    -6.320000000
H     2.441000000    -1.711000000    -7.096000000
C     3.591000000    -2.300000000    -5.389000000
O     4.377000000    -1.123000000    -5.309000000
C     3.907000000     0.035000000    -4.696000000
C     4.730000000     1.038000000    -4.183000000
H     5.796000000     0.825000000    -4.226000000
C     4.239000000     2.183000000    -3.618000000
O     5.193000000     3.006000000    -3.114000000
C     4.832000000     4.130000000    -2.452000000
C     4.618000000     5.377000000    -3.125000000
H     4.490000000     5.391000000    -4.204000000
C     4.342000000     6.568000000    -2.396000000
H     4.113000000     7.451000000    -2.986000000
C     4.348000000     6.502000000    -1.026000000
H     4.174000000     7.360000000    -0.382000000
C     4.597000000     5.340000000    -0.327000000
C     4.940000000     4.172000000    -1.058000000
H     5.217000000     3.306000000    -0.462000000
C     2.391000000     1.209000000     0.543000000
H     2.897000000     2.066000000     0.105000000
C     1.177000000     0.729000000    -0.048000000
H     0.743000000     1.335000000    -0.840000000
C     0.570000000    -0.409000000     0.420000000
H    -0.334000000    -0.786000000    -0.007000000
C     1.147000000    -1.038000000     1.589000000
H     0.493000000    -1.770000000     2.054000000
C     2.354000000    -0.604000000     2.147000000
H     2.774000000    -0.998000000     3.070000000
C     2.984000000     0.529000000     1.618000000
C     4.282000000     1.041000000     2.160000000
O     4.849000000     0.548000000     3.156000000
O     4.895000000     1.735000000     1.376000000
O     6.844000000    -1.510000000     2.084000000
H     6.383000000    -0.753000000     2.445000000
H     6.897000000    -1.333000000     1.145000000
O     9.334000000     1.426000000     2.815000000
H     9.916000000     1.743000000     2.124000000
H     8.687000000     2.124000000     2.922000000
O     5.536000000     0.156000000     6.984000000
H     4.842000000     0.449000000     7.574000000
H     5.098000000    -0.442000000     6.378000000
O     5.073000000    -3.654000000     3.307000000
H     4.413000000    -3.465000000     2.640000000
H     5.881000000    -3.277000000     2.958000000
O     4.799000000    -1.435000000     4.833000000
H     4.701000000    -0.637000000     4.313000000
H     4.734000000    -2.146000000     4.195000000
O     6.310000000     3.603000000     6.671000000
H     6.369000000     3.156000000     5.826000000
H     5.408000000     3.456000000     6.957000000
O     3.122000000    -1.828000000    -0.726000000
H     2.321000000    -1.422000000    -0.396000000
H     3.804000000    -1.173000000    -0.575000000
O     6.432000000     2.211000000     4.525000000
H     6.783000000     2.606000000     3.727000000
H     5.749000000     1.615000000     4.218000000
O     7.048000000     3.140000000     2.072000000
H     7.475000000     3.131000000     1.215000000
H     6.169000000     2.801000000     1.904000000
O     5.934000000     0.233000000    -0.413000000
H     5.626000000     0.861000000     0.240000000
H     6.344000000     0.773000000    -1.090000000
O     3.215000000    -4.080000000     0.904000000
H     2.888000000    -3.418000000     0.294000000
H     3.744000000    -4.665000000     0.362000000
O     7.887000000     2.730000000    -0.427000000
H     8.208000000     1.857000000    -0.653000000
H     8.036000000     3.252000000    -1.216000000
O     1.174000000     6.938000000     3.938000000
H     1.812000000     7.182000000     4.609000000
H     1.670000000     6.399000000     3.322000000
O     9.574000000    -1.236000000     3.658000000
H     9.762000000    -1.545000000     2.772000000
H     9.159000000    -0.383000000     3.531000000
O     6.907000000     6.600000000     1.887000000
H     7.427000000     6.911000000     1.147000000
H     6.506000000     5.789000000     1.574000000
O     9.407000000     0.278000000    -0.869000000
H     9.864000000    -0.494000000    -1.204000000
H     9.510000000     0.223000000     0.081000000
O     6.328000000    -3.258000000     6.175000000
H     5.885000000    -4.077000000     6.397000000
H     5.631000000    -2.689000000     5.849000000
O     7.193000000    -2.374000000    -0.977000000
H     7.686000000    -2.013000000    -1.714000000
H     6.358000000    -1.907000000    -0.995000000
O     8.229000000     0.857000000     5.839000000
H     7.963000000     1.618000000     5.323000000
H     7.413000000     0.523000000     6.211000000
