215
-1437.17449
C    -1.338000000    -1.579000000     5.362000000
H    -2.292000000    -2.091000000     5.463000000
C    -1.163000000    -0.229000000     4.968000000
C     0.037000000     0.416000000     5.244000000
H     0.164000000     1.379000000     4.755000000
C    -2.121000000     0.378000000     3.959000000
O    -3.259000000    -0.469000000     3.849000000
H    -1.584000000     0.342000000     3.000000000
O    -2.406000000     1.787000000     4.168000000
C    -2.546000000     2.585000000     3.064000000
C    -1.509000000     3.479000000     2.777000000
H    -0.570000000     3.494000000     3.324000000
C    -1.597000000     4.255000000     1.650000000
O    -0.343000000     4.878000000     1.306000000
C    -2.606000000     4.110000000     0.715000000
C    -2.658000000     4.756000000    -0.647000000
H    -3.677000000     4.993000000    -0.962000000
C    -1.975000000     3.980000000    -1.720000000
C    -2.709000000     3.250000000    -2.711000000
H    -3.794000000     3.186000000    -2.709000000
H    -2.165000000     5.730000000    -0.644000000
C    -3.686000000     3.268000000     1.093000000
H    -4.544000000     3.212000000     0.429000000
C    -3.579000000     2.385000000     2.164000000
C    -4.739000000     1.463000000     2.481000000
H    -5.668000000     1.847000000     2.053000000
H    -5.034000000     1.325000000     3.523000000
C    -4.428000000     0.095000000     1.863000000
C    -4.841000000    -0.166000000     0.599000000
H    -5.317000000     0.573000000    -0.040000000
C    -3.735000000    -0.824000000     2.650000000
C    -3.434000000    -2.030000000     2.049000000
H    -2.742000000    -2.694000000     2.560000000
C    -3.827000000    -2.299000000     0.725000000
O    -3.511000000    -3.532000000     0.162000000
C    -2.435000000    -3.484000000    -0.748000000
C    -1.407000000    -4.548000000    -0.519000000
C    -0.505000000    -4.890000000    -1.504000000
H    -0.555000000    -4.529000000    -2.528000000
C    -1.159000000    -5.050000000     0.778000000
H    -1.844000000    -4.725000000     1.557000000
O    -2.822000000    -3.546000000    -2.155000000
H    -1.843000000    -2.563000000    -0.636000000
C    -4.589000000    -1.364000000    -0.006000000
C    -5.052000000    -1.552000000    -1.454000000
H    -5.836000000    -0.811000000    -1.625000000
H    -5.404000000    -2.582000000    -1.542000000
C    -3.961000000    -1.434000000    -2.518000000
C    -3.973000000    -0.214000000    -3.216000000
H    -4.716000000     0.526000000    -2.927000000
C    -2.943000000    -2.342000000    -2.835000000
C    -1.984000000    -2.086000000    -3.824000000
H    -1.238000000    -2.850000000    -4.026000000
C    -1.845000000    -0.755000000    -4.283000000
O    -0.710000000    -0.464000000    -5.041000000
C     0.251000000     0.371000000    -4.335000000
C     1.713000000    -0.007000000    -4.602000000
C     2.030000000    -1.336000000    -4.970000000
H     1.306000000    -2.121000000    -5.171000000
C     2.838000000     0.852000000    -4.395000000
H     2.631000000     1.895000000    -4.171000000
O     0.065000000     1.763000000    -4.687000000
H     0.265000000     0.347000000    -3.235000000
C    -2.880000000     0.152000000    -4.058000000
C    -2.825000000     1.563000000    -4.572000000
H    -3.759000000     2.068000000    -4.828000000
H    -2.291000000     1.541000000    -5.525000000
C    -2.009000000     2.468000000    -3.621000000
C    -0.612000000     2.516000000    -3.692000000
C     0.023000000     3.324000000    -2.803000000
H     1.094000000     3.457000000    -2.936000000
C    -0.599000000     3.986000000    -1.769000000
O     0.123000000     4.799000000    -0.931000000
C     0.423000000     4.202000000     0.329000000
H     0.121000000     3.146000000     0.388000000
C     1.923000000     4.427000000     0.742000000
C     2.247000000     4.216000000     2.085000000
H     1.517000000     4.105000000     2.883000000
C     2.955000000     4.483000000    -0.242000000
H     2.762000000     4.519000000    -1.311000000
C     4.287000000     4.354000000     0.177000000
O     5.374000000     4.368000000    -0.651000000
C     4.569000000     4.372000000     1.591000000
H     5.569000000     4.405000000     2.015000000
C     3.542000000     4.312000000     2.461000000
O     3.990000000     4.219000000     3.782000000
C     3.363000000     3.610000000     4.858000000
C     3.288000000     2.241000000     4.867000000
H     3.735000000     1.702000000     4.036000000
C     2.650000000     4.396000000     5.790000000
H     2.704000000     5.481000000     5.754000000
C     1.982000000     3.784000000     6.827000000
H     1.676000000     4.292000000     7.739000000
C     2.008000000     2.423000000     6.872000000
H     1.509000000     1.900000000     7.684000000
C     2.548000000     1.634000000     5.884000000
O     2.303000000     0.323000000     5.947000000
C     1.064000000    -0.280000000     5.898000000
C     0.853000000    -1.563000000     6.330000000
H     1.745000000    -2.031000000     6.738000000
C    -0.302000000    -2.199000000     5.980000000
O    -0.479000000    -3.508000000     6.438000000
C    -0.860000000    -4.403000000     5.486000000
C     0.069000000    -4.764000000     4.505000000
H     0.984000000    -4.182000000     4.429000000
C    -2.132000000    -4.947000000     5.501000000
H    -2.756000000    -4.730000000     6.364000000
C    -2.510000000    -5.928000000     4.608000000
H    -3.534000000    -6.291000000     4.639000000
C    -1.577000000    -6.252000000     3.610000000
H    -1.930000000    -6.924000000     2.832000000
C    -0.330000000    -5.635000000     3.570000000
O     0.440000000    -5.787000000     2.462000000
C    -0.003000000    -5.724000000     1.101000000
C     0.914000000    -5.980000000     0.094000000
H     1.869000000    -6.462000000     0.287000000
C     0.572000000    -5.700000000    -1.188000000
O     1.493000000    -6.033000000    -2.160000000
C     1.636000000    -5.576000000    -3.491000000
C     2.428000000    -4.454000000    -3.757000000
H     2.844000000    -3.866000000    -2.944000000
C     1.170000000    -6.345000000    -4.558000000
H     0.578000000    -7.226000000    -4.321000000
C     1.418000000    -5.902000000    -5.864000000
H     0.859000000    -6.328000000    -6.693000000
C     2.252000000    -4.808000000    -6.131000000
H     2.508000000    -4.575000000    -7.161000000
C     2.763000000    -4.074000000    -5.074000000
O     3.630000000    -3.051000000    -5.346000000
C     3.352000000    -1.760000000    -5.070000000
C     4.422000000    -0.862000000    -4.912000000
H     5.473000000    -1.101000000    -5.051000000
C     4.216000000     0.452000000    -4.591000000
O     5.237000000     1.324000000    -4.332000000
C     5.144000000     2.622000000    -3.874000000
C     5.003000000     3.649000000    -4.803000000
H     5.117000000     3.382000000    -5.850000000
C     5.051000000     4.952000000    -4.323000000
H     5.031000000     5.838000000    -4.952000000
C     5.127000000     5.219000000    -2.952000000
H     5.114000000     6.241000000    -2.584000000
C     5.197000000     4.178000000    -2.018000000
C     5.216000000     2.899000000    -2.527000000
H     5.211000000     1.963000000    -1.973000000
C     2.563000000     0.615000000     0.472000000
H     3.377000000     1.237000000     0.109000000
C     1.404000000     0.677000000    -0.181000000
H     1.379000000     1.324000000    -1.054000000
C     0.307000000    -0.099000000     0.157000000
H    -0.569000000    -0.064000000    -0.378000000
C     0.361000000    -0.917000000     1.268000000
H    -0.529000000    -1.442000000     1.606000000
C     1.565000000    -0.929000000     2.031000000
H     1.697000000    -1.542000000     2.919000000
C     2.685000000    -0.272000000     1.552000000
C     4.053000000    -0.447000000     2.233000000
O     4.181000000    -1.181000000     3.203000000
O     4.905000000     0.287000000     1.918000000
O     8.854000000    -1.391000000     0.984000000
H     9.268000000    -0.819000000     0.339000000
H     9.331000000    -1.221000000     1.796000000
O     6.154000000    -1.432000000     0.333000000
H     7.044000000    -1.521000000     0.674000000
H     5.722000000    -0.835000000     0.944000000
O     5.235000000     0.402000000     6.672000000
H     5.276000000     1.059000000     7.367000000
H     4.308000000     0.364000000     6.434000000
O     7.232000000     0.717000000     3.107000000
H     6.327000000     0.549000000     2.846000000
H     7.193000000     1.538000000     3.596000000
O     7.394000000    -4.525000000     2.512000000
H     7.505000000    -5.133000000     3.243000000
H     7.451000000    -3.657000000     2.911000000
O     1.566000000    -2.205000000    -1.318000000
H     1.625000000    -1.324000000    -0.950000000
H     0.867000000    -2.627000000    -0.818000000
O     5.004000000    -5.535000000    -0.693000000
H     5.899000000    -5.257000000    -0.496000000
H     4.462000000    -4.783000000    -0.454000000
O     7.394000000    -4.403000000    -0.156000000
H     7.890000000    -3.620000000    -0.394000000
H     7.443000000    -4.437000000     0.799000000
O     6.683000000    -1.983000000     3.447000000
H     7.074000000    -1.128000000     3.627000000
H     5.804000000    -1.783000000     3.127000000
O     6.697000000     1.422000000     0.483000000
H     7.354000000     1.250000000     1.158000000
H     5.873000000     1.129000000     0.871000000
O     4.611000000    -2.448000000     5.765000000
H     4.508000000    -1.891000000     4.993000000
H     5.060000000    -3.228000000     5.440000000
O     7.348000000     2.971000000     4.485000000
H     6.889000000     3.579000000     5.064000000
H     7.930000000     3.527000000     3.966000000
O     3.813000000    -3.234000000    -0.361000000
H     4.500000000    -2.571000000    -0.299000000
H     3.141000000    -2.831000000    -0.912000000
O     6.950000000    -1.861000000     7.445000000
H     7.773000000    -1.508000000     7.108000000
H     6.275000000    -1.458000000     6.899000000
O     4.595000000    -4.381000000     2.521000000
H     4.258000000    -3.649000000     2.005000000
H     5.544000000    -4.340000000     2.405000000
O     6.580000000    -1.926000000    -2.501000000
H     6.468000000    -1.909000000    -1.551000000
H     7.519000000    -2.058000000    -2.630000000
O     7.630000000     1.113000000     6.306000000
H     7.577000000     1.928000000     5.807000000
H     6.742000000     0.757000000     6.279000000
O     7.559000000     0.711000000    -2.188000000
H     7.171000000     0.846000000    -1.324000000
H     7.057000000    -0.011000000    -2.566000000
O     4.432000000    -5.278000000     5.185000000
H     4.412000000    -4.790000000     4.362000000
H     4.862000000    -6.104000000     4.964000000
