215
-1432.20585
C     4.860000000    -0.374000000    -2.601000000
H     4.419000000    -1.348000000    -2.799000000
C     4.982000000     0.137000000    -1.266000000
C     5.457000000     1.462000000    -1.114000000
H     5.471000000     1.960000000    -0.148000000
C     4.376000000    -0.636000000    -0.130000000
O     4.446000000    -2.071000000    -0.441000000
H     3.313000000    -0.355000000    -0.152000000
O     4.986000000    -0.263000000     1.138000000
C     4.185000000    -0.233000000     2.261000000
C     3.796000000     1.036000000     2.667000000
H     4.282000000     1.903000000     2.227000000
C     2.689000000     1.137000000     3.466000000
O     2.182000000     2.399000000     3.695000000
C     2.289000000     0.052000000     4.213000000
C     1.314000000     0.218000000     5.310000000
H     1.436000000    -0.569000000     6.057000000
C    -0.096000000     0.080000000     4.774000000
C    -0.748000000    -1.184000000     4.761000000
H    -0.220000000    -2.082000000     5.070000000
H     1.552000000     1.157000000     5.815000000
C     2.749000000    -1.214000000     3.932000000
H     2.503000000    -2.135000000     4.455000000
C     3.705000000    -1.374000000     2.925000000
C     4.263000000    -2.707000000     2.485000000
H     4.477000000    -3.359000000     3.335000000
H     5.273000000    -2.552000000     2.100000000
C     3.291000000    -3.251000000     1.401000000
C     2.169000000    -4.023000000     1.726000000
H     1.870000000    -4.215000000     2.753000000
C     3.539000000    -2.967000000    -0.005000000
C     2.674000000    -3.447000000    -0.950000000
H     2.865000000    -3.144000000    -1.976000000
C     1.539000000    -4.207000000    -0.576000000
O     0.559000000    -4.733000000    -1.436000000
C    -0.793000000    -4.076000000    -1.496000000
C    -1.161000000    -3.500000000    -2.816000000
C    -2.448000000    -3.631000000    -3.408000000
H    -3.230000000    -4.218000000    -2.932000000
C    -0.153000000    -2.867000000    -3.525000000
H     0.836000000    -2.705000000    -3.104000000
O    -1.848000000    -4.898000000    -0.870000000
H    -0.711000000    -3.157000000    -0.897000000
C     1.317000000    -4.521000000     0.750000000
C     0.182000000    -5.403000000     1.254000000
H     0.529000000    -5.939000000     2.140000000
H     0.014000000    -6.276000000     0.621000000
C    -1.140000000    -4.649000000     1.415000000
C    -1.470000000    -4.197000000     2.736000000
H    -0.796000000    -4.539000000     3.518000000
C    -2.127000000    -4.570000000     0.449000000
C    -3.293000000    -3.864000000     0.661000000
H    -3.924000000    -3.670000000    -0.202000000
C    -3.532000000    -3.222000000     1.877000000
O    -4.469000000    -2.185000000     1.980000000
C    -3.913000000    -0.822000000     1.898000000
C    -4.746000000     0.013000000     0.950000000
C    -5.561000000    -0.518000000    -0.012000000
H    -5.744000000    -1.587000000    -0.071000000
C    -4.253000000     1.338000000     0.829000000
H    -3.477000000     1.740000000     1.474000000
O    -3.912000000    -0.338000000     3.202000000
H    -2.915000000    -0.898000000     1.440000000
C    -2.677000000    -3.461000000     2.966000000
C    -2.780000000    -2.729000000     4.312000000
H    -2.464000000    -3.365000000     5.142000000
H    -3.834000000    -2.595000000     4.564000000
C    -2.072000000    -1.311000000     4.277000000
C    -2.710000000    -0.154000000     3.842000000
C    -2.048000000     1.094000000     3.858000000
H    -2.587000000     1.903000000     3.372000000
C    -0.753000000     1.225000000     4.293000000
O    -0.072000000     2.431000000     4.289000000
C     0.844000000     2.673000000     3.264000000
H     0.645000000     1.880000000     2.528000000
C     0.748000000     3.985000000     2.524000000
C     1.742000000     4.416000000     1.607000000
H     2.567000000     3.787000000     1.282000000
C    -0.308000000     4.809000000     2.796000000
H    -1.123000000     4.539000000     3.463000000
C    -0.449000000     6.000000000     2.066000000
O    -1.661000000     6.579000000     2.225000000
C     0.523000000     6.410000000     1.190000000
H     0.509000000     7.395000000     0.731000000
C     1.573000000     5.579000000     0.940000000
O     2.572000000     5.967000000     0.005000000
C     3.909000000     5.620000000    -0.050000000
C     4.392000000     4.694000000    -1.014000000
H     3.662000000     4.340000000    -1.737000000
C     4.799000000     6.201000000     0.827000000
H     4.487000000     6.852000000     1.639000000
C     6.172000000     5.920000000     0.681000000
H     7.011000000     6.348000000     1.223000000
C     6.632000000     5.144000000    -0.339000000
H     7.706000000     4.998000000    -0.414000000
C     5.771000000     4.382000000    -1.104000000
O     6.249000000     3.503000000    -2.043000000
C     5.800000000     2.184000000    -2.244000000
C     5.809000000     1.632000000    -3.522000000
H     6.224000000     2.147000000    -4.385000000
C     5.219000000     0.403000000    -3.689000000
O     5.060000000    -0.143000000    -4.951000000
C     4.167000000    -1.118000000    -5.236000000
C     2.825000000    -0.868000000    -5.311000000
H     2.432000000     0.140000000    -5.207000000
C     4.664000000    -2.391000000    -5.403000000
H     5.715000000    -2.662000000    -5.455000000
C     3.768000000    -3.443000000    -5.512000000
H     4.185000000    -4.443000000    -5.599000000
C     2.354000000    -3.219000000    -5.400000000
H     1.740000000    -4.109000000    -5.511000000
C     1.899000000    -1.883000000    -5.420000000
O     0.601000000    -1.648000000    -5.512000000
C    -0.349000000    -2.400000000    -4.791000000
C    -1.681000000    -2.394000000    -5.274000000
H    -1.916000000    -1.828000000    -6.172000000
C    -2.732000000    -2.994000000    -4.622000000
O    -4.015000000    -2.928000000    -5.096000000
C    -5.154000000    -2.670000000    -4.254000000
C    -5.317000000    -1.555000000    -3.364000000
H    -4.521000000    -0.818000000    -3.300000000
C    -6.255000000    -3.500000000    -4.477000000
H    -6.025000000    -4.301000000    -5.175000000
C    -7.534000000    -3.143000000    -3.989000000
H    -8.401000000    -3.645000000    -4.412000000
C    -7.692000000    -2.056000000    -3.090000000
H    -8.599000000    -1.755000000    -2.573000000
C    -6.614000000    -1.233000000    -2.809000000
O    -6.814000000    -0.138000000    -1.988000000
C    -5.970000000     0.302000000    -1.029000000
C    -5.606000000     1.622000000    -1.124000000
H    -6.026000000     2.249000000    -1.907000000
C    -4.679000000     2.121000000    -0.236000000
O    -4.179000000     3.381000000    -0.482000000
C    -4.125000000     4.414000000     0.463000000
C    -5.312000000     5.025000000     0.874000000
H    -6.243000000     4.604000000     0.501000000
C    -5.264000000     6.106000000     1.738000000
H    -6.116000000     6.620000000     2.175000000
C    -4.070000000     6.585000000     2.250000000
H    -4.100000000     7.387000000     2.983000000
C    -2.888000000     5.958000000     1.893000000
C    -2.901000000     4.892000000     0.987000000
H    -1.987000000     4.476000000     0.569000000
C    -1.270000000     0.182000000    -1.686000000
H    -1.976000000     0.185000000    -2.513000000
C    -1.372000000    -0.825000000    -0.801000000
H    -2.181000000    -1.548000000    -0.869000000
C    -0.555000000    -0.922000000     0.354000000
H    -0.820000000    -1.780000000     1.036000000
C     0.509000000    -0.045000000     0.540000000
H     1.316000000    -0.189000000     1.253000000
C     0.552000000     1.112000000    -0.315000000
H     1.318000000     1.855000000    -0.110000000
C    -0.356000000     1.253000000    -1.417000000
C    -0.200000000     2.403000000    -2.400000000
O     0.573000000     3.315000000    -2.254000000
O    -0.820000000     2.383000000    -3.416000000
O    -0.985000000     8.211000000    -1.418000000
H    -1.810000000     8.489000000    -1.020000000
H    -1.079000000     7.265000000    -1.530000000
O     1.504000000     4.567000000    -4.279000000
H     1.109000000     4.157000000    -3.509000000
H     1.121000000     4.099000000    -5.021000000
O     4.149000000     4.440000000    -5.087000000
H     4.193000000     4.944000000    -5.900000000
H     3.212000000     4.361000000    -4.906000000
O     4.345000000     7.423000000    -3.907000000
H     3.857000000     7.703000000    -3.133000000
H     3.780000000     6.772000000    -4.324000000
O     4.310000000     1.941000000    -6.903000000
H     3.462000000     1.529000000    -6.738000000
H     4.337000000     2.684000000    -6.300000000
O    -1.085000000    -0.243000000    -8.074000000
H    -1.621000000     0.081000000    -7.351000000
H    -1.266000000     0.360000000    -8.796000000
O    -2.818000000     2.065000000    -5.210000000
H    -2.310000000     2.253000000    -5.999000000
H    -2.174000000     2.074000000    -4.503000000
O     0.282000000     6.735000000    -5.435000000
H     0.773000000     6.066000000    -4.958000000
H     0.015000000     6.303000000    -6.246000000
O    -5.578000000     2.883000000    -6.233000000
H    -5.987000000     3.487000000    -5.613000000
H    -4.779000000     2.592000000    -5.792000000
O     0.832000000     3.226000000    -7.174000000
H     1.027000000     2.874000000    -8.042000000
H     0.565000000     2.464000000    -6.661000000
O     0.469000000     5.861000000    -7.995000000
H     0.241000000     4.953000000    -8.193000000
H     0.038000000     6.372000000    -8.680000000
O     2.133000000    -0.396000000    -8.613000000
H     1.460000000    -0.497000000    -7.940000000
H     1.994000000     0.485000000    -8.961000000
O     1.620000000     7.801000000    -2.141000000
H     0.675000000     7.905000000    -2.032000000
H     1.780000000     6.873000000    -1.972000000
O    -3.042000000     4.456000000    -3.513000000
H    -3.934000000     4.123000000    -3.613000000
H    -2.486000000     3.681000000    -3.593000000
O    -2.517000000     3.008000000    -7.987000000
H    -3.438000000     2.913000000    -8.232000000
H    -2.305000000     3.917000000    -8.199000000
O    -2.655000000     7.037000000    -5.067000000
H    -2.696000000     6.300000000    -4.458000000
H    -1.738000000     7.309000000    -5.054000000
O     0.300000000     1.211000000    -5.584000000
H     0.034000000     0.331000000    -5.320000000
H     0.044000000     1.770000000    -4.850000000
O    -0.960000000     5.570000000    -1.961000000
H    -0.245000000     4.981000000    -1.721000000
H    -1.500000000     5.059000000    -2.564000000
O    -0.776000000     8.922000000    -4.009000000
H     0.066000000     8.511000000    -4.205000000
H    -0.949000000     8.689000000    -3.097000000
