215
-1456.17686
C    -0.980000000    -1.608000000     4.854000000
H    -1.904000000    -2.176000000     4.786000000
C    -1.020000000    -0.359000000     4.252000000
C     0.111000000     0.422000000     4.412000000
H     0.066000000     1.391000000     3.922000000
C    -2.253000000     0.113000000     3.514000000
O    -3.437000000    -0.814000000     3.642000000
H    -1.995000000     0.163000000     2.446000000
O    -2.581000000     1.470000000     3.900000000
C    -2.724000000     2.329000000     2.840000000
C    -1.775000000     3.254000000     2.550000000
H    -0.906000000     3.456000000     3.171000000
C    -1.890000000     4.068000000     1.403000000
O    -0.869000000     4.979000000     1.100000000
C    -3.029000000     3.925000000     0.519000000
C    -3.074000000     4.669000000    -0.808000000
H    -4.112000000     4.738000000    -1.141000000
C    -2.178000000     4.047000000    -1.884000000
C    -2.702000000     3.020000000    -2.664000000
H    -3.781000000     2.887000000    -2.642000000
H    -2.745000000     5.680000000    -0.563000000
C    -3.954000000     2.982000000     0.885000000
H    -4.804000000     2.923000000     0.211000000
C    -3.844000000     2.128000000     1.991000000
C    -5.023000000     1.143000000     2.272000000
H    -5.911000000     1.514000000     1.756000000
H    -5.232000000     1.119000000     3.344000000
C    -4.750000000    -0.310000000     1.755000000
C    -5.068000000    -0.567000000     0.364000000
H    -5.712000000     0.081000000    -0.225000000
C    -4.013000000    -1.179000000     2.459000000
C    -3.528000000    -2.312000000     1.817000000
H    -2.794000000    -2.926000000     2.332000000
C    -3.749000000    -2.623000000     0.485000000
O    -3.232000000    -3.751000000    -0.002000000
C    -2.056000000    -3.689000000    -0.869000000
C    -0.998000000    -4.770000000    -0.488000000
C    -0.111000000    -5.183000000    -1.468000000
H    -0.196000000    -4.822000000    -2.490000000
C    -0.916000000    -5.231000000     0.821000000
H    -1.620000000    -4.902000000     1.581000000
O    -2.442000000    -3.787000000    -2.144000000
H    -1.623000000    -2.697000000    -0.672000000
C    -4.575000000    -1.710000000    -0.273000000
C    -4.827000000    -1.997000000    -1.760000000
H    -5.765000000    -1.475000000    -1.960000000
H    -4.926000000    -3.078000000    -1.872000000
C    -3.633000000    -1.646000000    -2.660000000
C    -3.681000000    -0.375000000    -3.252000000
H    -4.515000000     0.296000000    -3.064000000
C    -2.616000000    -2.577000000    -2.845000000
C    -1.543000000    -2.142000000    -3.536000000
H    -0.614000000    -2.691000000    -3.668000000
C    -1.530000000    -0.895000000    -4.167000000
O    -0.365000000    -0.447000000    -4.716000000
C     0.369000000     0.318000000    -3.791000000
C     1.820000000    -0.156000000    -3.800000000
C     2.088000000    -1.473000000    -4.158000000
H     1.295000000    -2.148000000    -4.471000000
C     2.820000000     0.710000000    -3.434000000
H     2.549000000     1.705000000    -3.092000000
O     0.319000000     1.688000000    -4.188000000
H    -0.006000000     0.197000000    -2.764000000
C    -2.625000000    -0.022000000    -4.101000000
C    -2.595000000     1.406000000    -4.589000000
H    -3.630000000     1.743000000    -4.678000000
H    -2.171000000     1.529000000    -5.587000000
C    -1.942000000     2.310000000    -3.580000000
C    -0.516000000     2.572000000    -3.604000000
C    -0.009000000     3.562000000    -2.801000000
H     1.071000000     3.686000000    -2.815000000
C    -0.814000000     4.399000000    -1.985000000
O    -0.243000000     5.189000000    -1.040000000
C     0.194000000     4.582000000     0.182000000
H    -0.018000000     3.507000000     0.084000000
C     1.646000000     4.859000000     0.569000000
C     1.975000000     4.925000000     1.914000000
H     1.236000000     4.650000000     2.662000000
C     2.548000000     5.062000000    -0.431000000
H     2.272000000     4.992000000    -1.480000000
C     3.865000000     5.310000000    -0.004000000
O     4.923000000     5.434000000    -0.957000000
C     4.165000000     5.467000000     1.308000000
H     5.202000000     5.702000000     1.533000000
C     3.267000000     5.186000000     2.304000000
O     3.550000000     5.077000000     3.681000000
C     3.053000000     4.275000000     4.703000000
C     3.031000000     2.896000000     4.527000000
H     3.499000000     2.434000000     3.663000000
C     2.509000000     4.957000000     5.816000000
H     2.488000000     6.041000000     5.738000000
C     2.020000000     4.235000000     6.851000000
H     1.690000000     4.670000000     7.791000000
C     1.954000000     2.824000000     6.669000000
H     1.576000000     2.190000000     7.467000000
C     2.429000000     2.173000000     5.555000000
O     2.349000000     0.757000000     5.461000000
C     1.205000000    -0.012000000     5.230000000
C     1.215000000    -1.328000000     5.816000000
H     2.055000000    -1.668000000     6.415000000
C     0.091000000    -2.055000000     5.668000000
O     0.108000000    -3.377000000     6.167000000
C    -0.498000000    -4.432000000     5.451000000
C     0.109000000    -4.897000000     4.267000000
H     1.065000000    -4.518000000     3.918000000
C    -1.770000000    -4.901000000     5.874000000
H    -2.261000000    -4.557000000     6.780000000
C    -2.350000000    -5.928000000     5.234000000
H    -3.334000000    -6.327000000     5.470000000
C    -1.745000000    -6.433000000     4.052000000
H    -2.148000000    -7.359000000     3.650000000
C    -0.501000000    -5.986000000     3.629000000
O     0.174000000    -6.580000000     2.493000000
C     0.111000000    -6.082000000     1.179000000
C     0.970000000    -6.581000000     0.208000000
H     1.706000000    -7.331000000     0.488000000
C     0.871000000    -6.087000000    -1.105000000
O     1.829000000    -6.409000000    -2.038000000
C     2.077000000    -5.789000000    -3.239000000
C     2.800000000    -4.620000000    -3.406000000
H     3.159000000    -4.049000000    -2.553000000
C     1.484000000    -6.356000000    -4.401000000
H     0.814000000    -7.176000000    -4.152000000
C     1.751000000    -5.851000000    -5.628000000
H     1.335000000    -6.322000000    -6.514000000
C     2.619000000    -4.794000000    -5.789000000
H     3.016000000    -4.476000000    -6.750000000
C     3.013000000    -4.118000000    -4.699000000
O     3.794000000    -3.056000000    -4.918000000
C     3.451000000    -1.861000000    -4.307000000
C     4.445000000    -0.917000000    -4.161000000
H     5.499000000    -1.091000000    -4.362000000
C     4.164000000     0.357000000    -3.632000000
O     5.170000000     1.282000000    -3.501000000
C     4.946000000     2.676000000    -3.371000000
C     4.870000000     3.421000000    -4.536000000
H     4.761000000     2.950000000    -5.510000000
C     4.916000000     4.778000000    -4.508000000
H     4.844000000     5.338000000    -5.437000000
C     4.946000000     5.487000000    -3.317000000
H     4.986000000     6.573000000    -3.341000000
C     4.976000000     4.778000000    -2.125000000
C     5.031000000     3.398000000    -2.165000000
H     5.009000000     2.863000000    -1.219000000
C     1.980000000     0.405000000     0.845000000
H     2.595000000     1.262000000     0.583000000
C     0.699000000     0.335000000     0.329000000
H     0.395000000     0.996000000    -0.478000000
C    -0.124000000    -0.736000000     0.648000000
H    -1.119000000    -0.792000000     0.289000000
C     0.246000000    -1.703000000     1.609000000
H    -0.427000000    -2.466000000     1.990000000
C     1.519000000    -1.661000000     2.156000000
H     1.648000000    -2.425000000     2.918000000
C     2.395000000    -0.628000000     1.773000000
C     3.814000000    -0.545000000     2.353000000
O     4.210000000    -1.600000000     2.979000000
O     4.534000000     0.316000000     1.850000000
O     8.904000000    -0.883000000     0.909000000
H     9.665000000    -1.409000000     0.664000000
H     8.771000000    -1.071000000     1.838000000
O     6.200000000    -0.672000000    -0.107000000
H     7.022000000    -0.593000000     0.376000000
H     5.539000000    -0.307000000     0.482000000
O     6.350000000    -0.683000000     6.375000000
H     5.696000000    -0.141000000     6.816000000
H     5.856000000    -1.433000000     6.044000000
O     5.921000000     1.042000000     4.104000000
H     5.414000000     0.636000000     3.402000000
H     5.734000000     0.507000000     4.875000000
O     7.826000000    -4.796000000     2.467000000
H     7.521000000    -5.411000000     3.133000000
H     7.037000000    -4.562000000     1.978000000
O     2.790000000    -2.792000000    -0.407000000
H     2.398000000    -1.930000000    -0.548000000
H     2.350000000    -3.130000000     0.373000000
O     3.927000000    -3.166000000     8.090000000
H     4.015000000    -2.392000000     8.646000000
H     4.202000000    -2.871000000     7.222000000
O     5.634000000    -3.591000000     1.420000000
H     5.985000000    -3.005000000     0.749000000
H     5.122000000    -3.020000000     1.993000000
O     5.727000000     2.489000000     1.269000000
H     5.361000000     3.098000000     1.910000000
H     5.322000000     1.648000000     1.480000000
O     7.936000000     3.422000000     0.105000000
H     7.032000000     3.297000000     0.393000000
H     7.964000000     3.032000000    -0.769000000
O     7.680000000    -2.149000000     3.145000000
H     6.775000000    -2.043000000     3.439000000
H     7.743000000    -3.070000000     2.890000000
O     4.819000000    -2.548000000     5.396000000
H     4.323000000    -2.092000000     4.717000000
H     4.973000000    -3.421000000     5.034000000
O     6.212000000     5.589000000     5.183000000
H     5.639000000     6.095000000     4.607000000
H     6.274000000     4.731000000     4.765000000
O     7.264000000     3.518000000     3.762000000
H     6.969000000     2.609000000     3.823000000
H     7.717000000     3.567000000     2.920000000
O     5.340000000    -3.281000000    -1.445000000
H     5.931000000    -2.560000000    -1.228000000
H     4.525000000    -3.067000000    -0.990000000
O     4.461000000    -6.172000000     1.463000000
H     4.562000000    -6.755000000     0.711000000
H     4.887000000    -5.358000000     1.194000000
O     8.970000000     0.480000000     6.274000000
H     8.914000000     0.630000000     5.330000000
H     8.187000000    -0.031000000     6.482000000
O     8.146000000    -0.336000000    -2.151000000
H     8.699000000    -0.562000000    -1.403000000
H     7.303000000    -0.100000000    -1.763000000
O     4.668000000    -5.082000000     4.283000000
H     4.400000000    -5.349000000     3.404000000
H     5.345000000    -5.712000000     4.529000000
