215
-1463.17937
C    -0.330000000    -1.981000000     5.034000000
H    -0.976000000    -2.828000000     4.820000000
C    -0.752000000    -0.695000000     4.630000000
C     0.155000000     0.359000000     4.896000000
H    -0.183000000     1.384000000     4.768000000
C    -2.068000000    -0.487000000     3.896000000
O    -2.953000000    -1.589000000     4.044000000
H    -1.877000000    -0.426000000     2.814000000
O    -2.709000000     0.775000000     4.312000000
C    -3.143000000     1.580000000     3.248000000
C    -2.423000000     2.778000000     2.891000000
H    -1.593000000     3.089000000     3.520000000
C    -2.775000000     3.472000000     1.746000000
O    -2.013000000     4.598000000     1.386000000
C    -3.831000000     3.072000000     0.937000000
C    -4.135000000     3.799000000    -0.398000000
H    -5.200000000     3.655000000    -0.588000000
C    -3.172000000     3.477000000    -1.581000000
C    -3.689000000     2.409000000    -2.377000000
H    -4.637000000     1.946000000    -2.116000000
H    -4.097000000     4.878000000    -0.232000000
C    -4.552000000     1.896000000     1.234000000
H    -5.317000000     1.444000000     0.607000000
C    -4.201000000     1.159000000     2.358000000
C    -5.025000000    -0.148000000     2.712000000
H    -6.033000000    -0.073000000     2.298000000
H    -5.099000000    -0.215000000     3.800000000
C    -4.394000000    -1.391000000     2.122000000
C    -4.732000000    -1.776000000     0.817000000
H    -5.434000000    -1.193000000     0.227000000
C    -3.445000000    -2.089000000     2.872000000
C    -2.661000000    -3.127000000     2.313000000
H    -1.861000000    -3.582000000     2.891000000
C    -2.963000000    -3.431000000     0.968000000
O    -2.097000000    -4.365000000     0.328000000
C    -1.161000000    -3.846000000    -0.682000000
C     0.181000000    -4.472000000    -0.533000000
C     1.075000000    -4.467000000    -1.603000000
H     0.761000000    -4.090000000    -2.573000000
C     0.701000000    -4.918000000     0.695000000
H     0.005000000    -4.862000000     1.528000000
O    -1.722000000    -4.087000000    -1.984000000
H    -1.194000000    -2.748000000    -0.632000000
C    -3.926000000    -2.749000000     0.182000000
C    -4.286000000    -3.149000000    -1.227000000
H    -5.325000000    -2.920000000    -1.472000000
H    -4.241000000    -4.240000000    -1.222000000
C    -3.449000000    -2.555000000    -2.323000000
C    -3.895000000    -1.406000000    -2.971000000
H    -4.883000000    -1.005000000    -2.758000000
C    -2.180000000    -3.054000000    -2.690000000
C    -1.344000000    -2.336000000    -3.538000000
H    -0.315000000    -2.650000000    -3.692000000
C    -1.725000000    -1.104000000    -3.987000000
O    -0.840000000    -0.392000000    -4.801000000
C    -0.037000000     0.709000000    -4.302000000
C     1.327000000     0.679000000    -4.908000000
C     1.874000000    -0.523000000    -5.280000000
H     1.299000000    -1.438000000    -5.164000000
C     2.149000000     1.835000000    -4.856000000
H     1.782000000     2.797000000    -4.508000000
O    -0.723000000     1.919000000    -4.481000000
H    -0.002000000     0.604000000    -3.208000000
C    -3.002000000    -0.623000000    -3.740000000
C    -3.364000000     0.732000000    -4.314000000
H    -4.437000000     0.820000000    -4.128000000
H    -3.128000000     0.918000000    -5.363000000
C    -2.878000000     1.949000000    -3.457000000
C    -1.591000000     2.443000000    -3.585000000
C    -1.152000000     3.505000000    -2.773000000
H    -0.116000000     3.823000000    -2.856000000
C    -1.904000000     4.054000000    -1.824000000
O    -1.405000000     4.922000000    -0.876000000
C    -1.085000000     4.273000000     0.373000000
H    -1.115000000     3.180000000     0.247000000
C     0.366000000     4.660000000     0.749000000
C     0.678000000     4.973000000     2.077000000
H    -0.153000000     5.119000000     2.763000000
C     1.401000000     4.620000000    -0.220000000
H     1.161000000     4.274000000    -1.222000000
C     2.748000000     4.860000000     0.168000000
O     3.769000000     4.596000000    -0.698000000
C     3.011000000     5.147000000     1.486000000
H     4.031000000     5.247000000     1.848000000
C     1.998000000     5.251000000     2.477000000
O     2.459000000     5.484000000     3.757000000
C     2.013000000     4.696000000     4.770000000
C     2.251000000     3.324000000     4.757000000
H     2.712000000     2.809000000     3.917000000
C     1.470000000     5.287000000     5.922000000
H     1.330000000     6.363000000     5.988000000
C     1.293000000     4.496000000     7.057000000
H     1.022000000     4.937000000     8.013000000
C     1.395000000     3.123000000     7.000000000
H     1.228000000     2.522000000     7.890000000
C     1.921000000     2.525000000     5.867000000
O     2.248000000     1.125000000     5.909000000
C     1.396000000     0.133000000     5.494000000
C     1.714000000    -1.129000000     5.968000000
H     2.681000000    -1.273000000     6.444000000
C     0.864000000    -2.179000000     5.782000000
O     1.207000000    -3.422000000     6.213000000
C     1.235000000    -4.568000000     5.434000000
C     1.983000000    -4.563000000     4.319000000
H     2.573000000    -3.678000000     4.093000000
C     0.572000000    -5.729000000     5.931000000
H     0.005000000    -5.781000000     6.857000000
C     0.545000000    -6.802000000     5.056000000
H    -0.155000000    -7.572000000     5.371000000
C     1.176000000    -6.749000000     3.790000000
H     1.114000000    -7.642000000     3.173000000
C     1.834000000    -5.598000000     3.351000000
O     2.612000000    -5.568000000     2.200000000
C     2.046000000    -5.338000000     0.933000000
C     2.926000000    -5.243000000    -0.145000000
H     3.965000000    -5.559000000    -0.108000000
C     2.417000000    -4.806000000    -1.375000000
O     3.387000000    -4.560000000    -2.383000000
C     3.032000000    -4.363000000    -3.704000000
C     3.369000000    -3.192000000    -4.340000000
H     3.949000000    -2.389000000    -3.893000000
C     2.480000000    -5.386000000    -4.501000000
H     2.177000000    -6.273000000    -3.951000000
C     2.268000000    -5.262000000    -5.902000000
H     1.802000000    -6.057000000    -6.479000000
C     2.594000000    -4.078000000    -6.512000000
H     2.389000000    -3.981000000    -7.575000000
C     3.273000000    -3.077000000    -5.734000000
O     3.565000000    -1.783000000    -6.284000000
C     3.140000000    -0.621000000    -5.703000000
C     3.939000000     0.473000000    -5.734000000
H     4.931000000     0.405000000    -6.172000000
C     3.478000000     1.686000000    -5.275000000
O     4.351000000     2.713000000    -5.093000000
C     4.118000000     3.795000000    -4.278000000
C     3.921000000     5.082000000    -4.846000000
H     4.068000000     5.219000000    -5.914000000
C     3.684000000     6.214000000    -4.051000000
H     3.483000000     7.207000000    -4.446000000
C     3.412000000     5.929000000    -2.699000000
H     3.055000000     6.766000000    -2.105000000
C     3.726000000     4.760000000    -2.082000000
C     4.246000000     3.692000000    -2.886000000
H     4.552000000     2.779000000    -2.382000000
C     1.533000000     0.809000000    -0.128000000
H     2.001000000     1.623000000    -0.674000000
C     0.196000000     0.613000000    -0.300000000
H    -0.464000000     1.245000000    -0.889000000
C    -0.483000000    -0.472000000     0.380000000
H    -1.522000000    -0.624000000     0.292000000
C     0.238000000    -1.300000000     1.156000000
H    -0.318000000    -2.022000000     1.749000000
C     1.578000000    -1.131000000     1.332000000
H     2.170000000    -1.817000000     1.932000000
C     2.249000000    -0.009000000     0.744000000
C     3.706000000     0.179000000     0.977000000
O     4.173000000    -0.026000000     2.084000000
O     4.402000000     0.655000000     0.076000000
O     8.094000000    -2.190000000    -1.061000000
H     7.265000000    -2.280000000    -1.531000000
H     7.838000000    -2.057000000    -0.148000000
O     5.404000000    -2.616000000    -1.767000000
H     4.602000000    -3.138000000    -1.791000000
H     5.100000000    -1.709000000    -1.798000000
O     5.183000000     1.917000000     3.979000000
H     5.466000000     2.278000000     3.139000000
H     4.820000000     1.059000000     3.761000000
O     5.682000000     4.454000000     5.558000000
H     5.784000000     4.251000000     6.488000000
H     5.383000000     3.634000000     5.165000000
O     6.935000000    -1.655000000     1.281000000
H     6.118000000    -1.171000000     1.164000000
H     6.706000000    -2.375000000     1.868000000
O     4.321000000    -0.284000000    -2.487000000
H     4.227000000     0.397000000    -3.153000000
H     4.274000000     0.187000000    -1.655000000
O     9.244000000     0.748000000    -0.421000000
H     9.898000000     1.437000000    -0.539000000
H     9.109000000     0.705000000     0.525000000
O     5.336000000    -1.812000000     3.999000000
H     5.334000000    -2.676000000     3.586000000
H     4.790000000    -1.272000000     3.428000000
O     5.699000000     2.900000000     1.720000000
H     5.215000000     2.333000000     1.120000000
H     6.347000000     3.336000000     1.168000000
O     6.645000000     1.205000000    -1.217000000
H     5.951000000     0.856000000    -0.659000000
H     7.444000000     0.783000000    -0.900000000
O     5.646000000    -4.064000000     2.478000000
H     4.989000000    -4.535000000     1.967000000
H     6.209000000    -4.751000000     2.836000000
O     8.266000000    -3.489000000     4.080000000
H     7.525000000    -2.916000000     4.278000000
H     7.871000000    -4.347000000     3.929000000
O     6.747000000    -5.319000000    -1.019000000
H     7.158000000    -4.829000000    -0.306000000
H     6.064000000    -4.735000000    -1.348000000
O     6.233000000    -2.409000000     6.812000000
H     5.647000000    -3.088000000     7.146000000
H     5.870000000    -2.179000000     5.957000000
O     8.675000000     0.336000000     2.330000000
H     8.683000000     0.458000000     3.279000000
H     8.027000000    -0.353000000     2.182000000
O     6.030000000     0.846000000     6.079000000
H     5.979000000     1.607000000     5.500000000
H     5.260000000     0.323000000     5.856000000
O     7.635000000     3.389000000    -2.450000000
H     7.810000000     2.947000000    -3.281000000
H     7.117000000     2.759000000    -1.949000000
O     8.233000000    -4.494000000     0.987000000
H     8.802000000    -4.896000000     1.643000000
H     8.382000000    -3.553000000     1.085000000
O     7.126000000     0.051000000    -3.798000000
H     8.041000000     0.257000000    -3.609000000
H     6.653000000     0.313000000    -3.008000000
