215
-1486.71919
C    -0.950000000    -1.414000000     5.027000000
H    -1.799000000    -2.086000000     4.927000000
C    -1.070000000    -0.086000000     4.542000000
C     0.086000000     0.669000000     4.538000000
H     0.102000000     1.645000000     4.060000000
C    -2.181000000     0.416000000     3.703000000
O    -3.194000000    -0.617000000     3.679000000
H    -1.844000000     0.492000000     2.659000000
O    -2.564000000     1.692000000     4.073000000
C    -2.844000000     2.481000000     2.926000000
C    -1.803000000     3.386000000     2.610000000
H    -0.928000000     3.499000000     3.244000000
C    -1.922000000     4.057000000     1.399000000
O    -0.896000000     4.895000000     1.110000000
C    -3.024000000     3.983000000     0.526000000
C    -3.019000000     4.758000000    -0.796000000
H    -4.083000000     4.678000000    -1.027000000
C    -2.222000000     3.991000000    -1.853000000
C    -2.848000000     3.121000000    -2.717000000
H    -3.909000000     3.032000000    -2.497000000
H    -2.616000000     5.769000000    -0.699000000
C    -4.079000000     3.121000000     0.926000000
H    -4.985000000     3.101000000     0.325000000
C    -4.011000000     2.334000000     2.098000000
C    -4.983000000     1.239000000     2.337000000
H    -5.986000000     1.511000000     1.999000000
H    -5.159000000     1.093000000     3.405000000
C    -4.598000000    -0.080000000     1.763000000
C    -5.102000000    -0.475000000     0.482000000
H    -5.724000000     0.197000000    -0.103000000
C    -3.807000000    -0.967000000     2.459000000
C    -3.495000000    -2.185000000     1.928000000
H    -2.832000000    -2.870000000     2.450000000
C    -3.940000000    -2.521000000     0.659000000
O    -3.372000000    -3.630000000     0.048000000
C    -2.264000000    -3.479000000    -0.858000000
C    -1.101000000    -4.402000000    -0.562000000
C    -0.164000000    -4.812000000    -1.523000000
H    -0.233000000    -4.442000000    -2.543000000
C    -1.072000000    -4.817000000     0.781000000
H    -1.744000000    -4.452000000     1.554000000
O    -2.733000000    -3.605000000    -2.266000000
H    -1.798000000    -2.485000000    -0.782000000
C    -4.638000000    -1.637000000    -0.094000000
C    -5.067000000    -1.965000000    -1.513000000
H    -5.982000000    -1.449000000    -1.810000000
H    -5.167000000    -3.031000000    -1.727000000
C    -3.942000000    -1.565000000    -2.534000000
C    -3.970000000    -0.311000000    -3.216000000
H    -4.823000000     0.357000000    -3.128000000
C    -2.854000000    -2.388000000    -2.909000000
C    -1.835000000    -2.002000000    -3.706000000
H    -0.924000000    -2.586000000    -3.804000000
C    -1.860000000    -0.785000000    -4.303000000
O    -0.699000000    -0.370000000    -4.954000000
C     0.274000000     0.359000000    -4.246000000
C     1.645000000    -0.126000000    -4.389000000
C     1.913000000    -1.361000000    -4.983000000
H     1.054000000    -1.922000000    -5.342000000
C     2.750000000     0.584000000    -3.814000000
H     2.540000000     1.515000000    -3.294000000
O     0.061000000     1.774000000    -4.495000000
H     0.175000000     0.191000000    -3.163000000
C    -2.942000000     0.053000000    -4.099000000
C    -2.985000000     1.509000000    -4.584000000
H    -4.043000000     1.781000000    -4.590000000
H    -2.610000000     1.510000000    -5.610000000
C    -2.166000000     2.452000000    -3.733000000
C    -0.771000000     2.584000000    -3.752000000
C    -0.142000000     3.526000000    -2.937000000
H     0.944000000     3.579000000    -2.932000000
C    -0.878000000     4.201000000    -1.974000000
O    -0.091000000     5.025000000    -1.137000000
C     0.193000000     4.522000000     0.173000000
H     0.294000000     3.427000000     0.135000000
C     1.573000000     4.964000000     0.633000000
C     1.802000000     5.277000000     1.976000000
H     0.963000000     5.427000000     2.650000000
C     2.671000000     4.798000000    -0.206000000
H     2.649000000     4.553000000    -1.265000000
C     3.971000000     4.925000000     0.340000000
O     5.070000000     4.701000000    -0.475000000
C     4.198000000     5.158000000     1.657000000
H     5.211000000     5.111000000     2.050000000
C     3.086000000     5.311000000     2.512000000
O     3.205000000     5.430000000     3.879000000
C     3.195000000     4.306000000     4.701000000
C     2.749000000     3.073000000     4.301000000
H     2.378000000     2.851000000     3.304000000
C     3.634000000     4.416000000     6.027000000
H     4.216000000     5.278000000     6.340000000
C     3.525000000     3.412000000     7.026000000
H     3.949000000     3.591000000     8.010000000
C     3.104000000     2.210000000     6.545000000
H     3.042000000     1.385000000     7.250000000
C     2.791000000     1.984000000     5.211000000
O     2.498000000     0.759000000     4.722000000
C     1.301000000     0.161000000     5.036000000
C     1.334000000    -1.113000000     5.609000000
H     2.294000000    -1.496000000     5.947000000
C     0.206000000    -1.888000000     5.615000000
O     0.284000000    -3.147000000     5.987000000
C    -0.354000000    -4.192000000     5.404000000
C     0.063000000    -4.555000000     4.124000000
H     0.841000000    -3.968000000     3.644000000
C    -1.431000000    -4.831000000     6.026000000
H    -1.741000000    -4.562000000     7.033000000
C    -2.048000000    -5.970000000     5.424000000
H    -2.901000000    -6.498000000     5.840000000
C    -1.578000000    -6.375000000     4.211000000
H    -1.909000000    -7.345000000     3.847000000
C    -0.553000000    -5.712000000     3.545000000
O     0.019000000    -6.280000000     2.420000000
C    -0.105000000    -5.816000000     1.119000000
C     0.942000000    -6.167000000     0.185000000
H     1.715000000    -6.852000000     0.523000000
C     0.891000000    -5.664000000    -1.130000000
O     1.881000000    -5.997000000    -2.029000000
C     1.795000000    -5.652000000    -3.392000000
C     2.569000000    -4.570000000    -3.760000000
H     3.134000000    -3.916000000    -3.101000000
C     1.076000000    -6.367000000    -4.382000000
H     0.523000000    -7.243000000    -4.053000000
C     1.236000000    -5.954000000    -5.745000000
H     0.670000000    -6.560000000    -6.447000000
C     1.901000000    -4.843000000    -6.125000000
H     1.982000000    -4.513000000    -7.158000000
C     2.687000000    -4.194000000    -5.075000000
O     3.484000000    -3.096000000    -5.433000000
C     3.247000000    -1.861000000    -4.948000000
C     4.288000000    -1.106000000    -4.460000000
H     5.315000000    -1.459000000    -4.461000000
C     4.060000000     0.114000000    -3.853000000
O     5.047000000     0.823000000    -3.181000000
C     4.984000000     2.150000000    -3.062000000
C     5.275000000     2.892000000    -4.205000000
H     5.518000000     2.411000000    -5.149000000
C     5.367000000     4.312000000    -4.099000000
H     5.522000000     4.925000000    -4.983000000
C     5.189000000     4.925000000    -2.859000000
H     5.293000000     5.983000000    -2.633000000
C     5.045000000     4.120000000    -1.734000000
C     4.836000000     2.726000000    -1.831000000
H     4.631000000     2.090000000    -0.974000000
C     1.638000000     0.565000000     0.406000000
H     2.389000000     1.274000000     0.067000000
C     0.305000000     0.706000000     0.000000000
H     0.088000000     1.460000000    -0.752000000
C    -0.620000000    -0.168000000     0.582000000
H    -1.762000000    -0.150000000     0.277000000
C    -0.260000000    -1.180000000     1.444000000
H    -1.016000000    -1.844000000     1.854000000
C     1.043000000    -1.346000000     1.872000000
H     1.306000000    -2.202000000     2.488000000
C     2.010000000    -0.402000000     1.411000000
C     3.407000000    -0.585000000     1.875000000
O     3.679000000    -1.517000000     2.600000000
O     4.289000000     0.076000000     1.395000000
O     8.190000000    -2.480000000     0.920000000
H     7.805000000    -2.734000000     1.759000000
H     7.690000000    -1.709000000     0.651000000
O     4.949000000    -1.689000000    -0.596000000
H     5.711000000    -1.392000000    -1.094000000
H     5.070000000    -1.310000000     0.275000000
O     5.170000000    -0.463000000     4.734000000
H     4.316000000    -0.064000000     4.902000000
H     5.014000000    -1.062000000     4.004000000
O     7.137000000     1.764000000     5.246000000
H     6.700000000     0.967000000     4.948000000
H     7.160000000     1.683000000     6.199000000
O     6.104000000    -2.525000000     2.482000000
H     6.073000000    -3.324000000     3.007000000
H     5.192000000    -2.239000000     2.427000000
O     1.632000000    -2.145000000    -1.506000000
H     1.330000000    -1.502000000    -0.863000000
H     2.537000000    -1.893000000    -1.688000000
O     5.106000000    -5.863000000     0.203000000
H     5.440000000    -6.044000000    -0.675000000
H     4.494000000    -5.137000000     0.081000000
O     8.737000000     1.656000000     2.024000000
H     9.036000000     1.271000000     2.848000000
H     8.164000000     2.375000000     2.289000000
O     3.143000000    -4.211000000     2.906000000
H     2.892000000    -4.458000000     2.016000000
H     3.171000000    -3.254000000     2.890000000
O     5.725000000     2.165000000     2.736000000
H     5.136000000     1.453000000     2.483000000
H     5.643000000     2.216000000     3.688000000
O     6.989000000    -0.082000000     0.618000000
H     6.122000000     0.234000000     0.873000000
H     7.590000000     0.349000000     1.226000000
O     4.755000000    -5.233000000     5.369000000
H     4.296000000    -4.729000000     4.697000000
H     4.173000000    -5.970000000     5.555000000
O     7.443000000     4.195000000     2.345000000
H     7.017000000     4.613000000     3.094000000
H     6.755000000     3.662000000     1.946000000
O     8.846000000     0.118000000    -1.426000000
H     9.547000000    -0.329000000    -0.951000000
H     8.173000000     0.279000000    -0.765000000
O     3.358000000    -3.829000000     0.126000000
H     3.933000000    -3.093000000    -0.083000000
H     2.576000000    -3.680000000    -0.405000000
O     4.686000000    -2.275000000     7.222000000
H     4.421000000    -1.764000000     7.987000000
H     4.898000000    -1.620000000     6.558000000
O     7.697000000    -1.708000000     5.528000000
H     7.178000000    -1.198000000     4.906000000
H     8.591000000    -1.663000000     5.189000000
O     6.056000000    -5.396000000     2.886000000
H     5.777000000    -5.672000000     2.013000000
H     5.286000000    -5.534000000     3.438000000
O     7.216000000    -1.866000000    -2.666000000
H     7.738000000    -2.665000000    -2.749000000
H     7.791000000    -1.251000000    -2.212000000
