215
-1448.65858
C    -2.886000000    -0.441000000     4.809000000
H    -3.412000000    -1.188000000     4.221000000
C    -2.893000000     0.826000000     4.342000000
C    -2.221000000     1.829000000     5.003000000
H    -2.249000000     2.890000000     4.769000000
C    -3.492000000     1.097000000     2.961000000
O    -4.692000000     0.346000000     2.690000000
H    -2.758000000     0.802000000     2.197000000
O    -3.811000000     2.478000000     2.819000000
C    -3.517000000     2.999000000     1.610000000
C    -2.248000000     3.661000000     1.455000000
H    -1.591000000     3.631000000     2.321000000
C    -1.744000000     4.090000000     0.250000000
O    -0.469000000     4.645000000     0.174000000
C    -2.546000000     3.945000000    -0.842000000
C    -2.077000000     4.543000000    -2.204000000
H    -2.926000000     4.804000000    -2.839000000
C    -1.127000000     3.620000000    -2.992000000
C    -1.537000000     2.878000000    -4.039000000
H    -2.602000000     2.845000000    -4.254000000
H    -1.537000000     5.475000000    -2.025000000
C    -3.819000000     3.367000000    -0.766000000
H    -4.429000000     3.327000000    -1.665000000
C    -4.291000000     2.813000000     0.483000000
C    -5.578000000     1.984000000     0.530000000
H    -6.310000000     2.170000000    -0.259000000
H    -6.032000000     2.125000000     1.513000000
C    -5.169000000     0.518000000     0.330000000
C    -5.098000000    -0.025000000    -0.920000000
H    -5.412000000     0.503000000    -1.817000000
C    -4.666000000    -0.197000000     1.413000000
C    -4.094000000    -1.450000000     1.278000000
H    -3.618000000    -1.989000000     2.093000000
C    -3.991000000    -1.972000000     0.025000000
O    -3.312000000    -3.133000000    -0.008000000
C    -2.018000000    -3.204000000    -0.631000000
C    -1.121000000    -4.224000000     0.095000000
C     0.090000000    -4.696000000    -0.482000000
H     0.438000000    -4.437000000    -1.479000000
C    -1.409000000    -4.451000000     1.466000000
H    -2.197000000    -3.916000000     1.989000000
O    -2.085000000    -3.562000000    -2.039000000
H    -1.543000000    -2.226000000    -0.467000000
C    -4.535000000    -1.315000000    -1.115000000
C    -4.451000000    -1.913000000    -2.571000000
H    -5.206000000    -1.374000000    -3.146000000
H    -4.614000000    -2.993000000    -2.554000000
C    -3.050000000    -1.683000000    -3.259000000
C    -2.826000000    -0.598000000    -4.139000000
H    -3.666000000     0.039000000    -4.402000000
C    -2.018000000    -2.590000000    -2.993000000
C    -0.767000000    -2.417000000    -3.616000000
H     0.082000000    -3.037000000    -3.339000000
C    -0.543000000    -1.381000000    -4.514000000
O     0.703000000    -1.190000000    -5.021000000
C     1.611000000    -0.315000000    -4.269000000
C     3.035000000    -0.817000000    -4.096000000
C     3.252000000    -2.120000000    -3.873000000
H     2.490000000    -2.895000000    -3.893000000
C     4.116000000     0.092000000    -3.941000000
H     4.081000000     1.154000000    -4.169000000
O     1.514000000     0.999000000    -4.848000000
H     1.203000000    -0.239000000    -3.250000000
C    -1.516000000    -0.412000000    -4.772000000
C    -1.256000000     0.833000000    -5.540000000
H    -2.223000000     1.126000000    -5.954000000
H    -0.522000000     0.486000000    -6.270000000
C    -0.689000000     1.951000000    -4.679000000
C     0.638000000     1.951000000    -4.349000000
C     1.137000000     2.840000000    -3.366000000
H     2.146000000     2.665000000    -3.002000000
C     0.273000000     3.658000000    -2.697000000
O     0.841000000     4.371000000    -1.723000000
C     0.565000000     3.855000000    -0.411000000
H     0.332000000     2.784000000    -0.503000000
C     1.828000000     3.818000000     0.464000000
C     1.745000000     3.564000000     1.822000000
H     0.757000000     3.372000000     2.232000000
C     3.051000000     3.923000000    -0.219000000
H     3.090000000     4.065000000    -1.296000000
C     4.210000000     3.727000000     0.546000000
O     5.411000000     3.787000000     0.059000000
C     4.085000000     3.389000000     1.881000000
H     4.987000000     3.141000000     2.434000000
C     2.893000000     3.340000000     2.567000000
O     2.849000000     3.129000000     3.877000000
C     2.019000000     3.717000000     4.724000000
C     1.124000000     2.882000000     5.371000000
H     1.192000000     1.836000000     5.082000000
C     1.968000000     5.090000000     5.001000000
H     2.627000000     5.720000000     4.409000000
C     0.972000000     5.578000000     5.868000000
H     0.936000000     6.660000000     5.958000000
C     0.116000000     4.701000000     6.531000000
H    -0.564000000     4.978000000     7.333000000
C     0.153000000     3.294000000     6.267000000
O    -0.729000000     2.401000000     6.825000000
C    -1.477000000     1.483000000     6.108000000
C    -1.531000000     0.186000000     6.695000000
H    -0.853000000    -0.134000000     7.483000000
C    -2.275000000    -0.773000000     5.959000000
O    -2.194000000    -2.090000000     6.430000000
C    -2.529000000    -3.213000000     5.785000000
C    -1.594000000    -3.711000000     4.924000000
H    -0.626000000    -3.243000000     4.768000000
C    -3.663000000    -3.900000000     6.064000000
H    -4.432000000    -3.549000000     6.747000000
C    -3.943000000    -5.050000000     5.303000000
H    -4.929000000    -5.502000000     5.378000000
C    -2.980000000    -5.615000000     4.520000000
H    -3.085000000    -6.522000000     3.930000000
C    -1.774000000    -4.945000000     4.320000000
O    -0.751000000    -5.468000000     3.565000000
C    -0.565000000    -5.213000000     2.222000000
C     0.567000000    -5.847000000     1.632000000
H     1.199000000    -6.525000000     2.201000000
C     0.867000000    -5.573000000     0.291000000
O     2.006000000    -6.123000000    -0.245000000
C     2.491000000    -6.031000000    -1.573000000
C     3.333000000    -5.035000000    -1.986000000
H     3.616000000    -4.265000000    -1.272000000
C     2.202000000    -7.078000000    -2.467000000
H     1.679000000    -7.947000000    -2.076000000
C     2.622000000    -6.981000000    -3.832000000
H     2.337000000    -7.810000000    -4.475000000
C     3.467000000    -5.889000000    -4.201000000
H     3.912000000    -5.959000000    -5.190000000
C     3.834000000    -4.968000000    -3.227000000
O     4.705000000    -3.957000000    -3.592000000
C     4.525000000    -2.642000000    -3.651000000
C     5.572000000    -1.812000000    -3.399000000
H     6.526000000    -2.256000000    -3.125000000
C     5.420000000    -0.386000000    -3.573000000
O     6.498000000     0.471000000    -3.328000000
C     6.420000000     1.807000000    -2.944000000
C     7.008000000     2.880000000    -3.606000000
H     7.383000000     2.623000000    -4.593000000
C     7.032000000     4.204000000    -3.140000000
H     7.325000000     5.045000000    -3.764000000
C     6.396000000     4.404000000    -1.927000000
H     6.377000000     5.430000000    -1.570000000
C     5.872000000     3.395000000    -1.232000000
C     5.833000000     2.070000000    -1.719000000
H     5.371000000     1.267000000    -1.151000000
C     1.800000000    -0.961000000    -0.120000000
H     2.311000000    -1.625000000    -0.812000000
C     0.569000000    -0.429000000    -0.490000000
H     0.102000000    -0.582000000    -1.459000000
C    -0.186000000     0.206000000     0.450000000
H    -1.186000000     0.652000000     0.141000000
C     0.270000000     0.461000000     1.763000000
H    -0.356000000     1.011000000     2.462000000
C     1.600000000     0.166000000     2.038000000
H     1.885000000     0.409000000     3.059000000
C     2.359000000    -0.625000000     1.175000000
C     3.724000000    -1.207000000     1.621000000
O     3.962000000    -1.338000000     2.785000000
O     4.504000000    -1.574000000     0.781000000
O     9.152000000    -1.147000000    -1.536000000
H     9.355000000    -0.220000000    -1.410000000
H     8.284000000    -1.257000000    -1.147000000
O     5.047000000    -6.467000000     4.894000000
H     5.168000000    -7.397000000     5.085000000
H     4.496000000    -6.453000000     4.111000000
O     7.019000000    -5.927000000     2.269000000
H     6.494000000    -5.491000000     2.940000000
H     7.159000000    -5.256000000     1.600000000
O     8.452000000    -0.753000000     5.681000000
H     8.259000000    -0.628000000     6.611000000
H     7.934000000    -0.082000000     5.237000000
O     6.045000000     0.680000000     1.993000000
H     5.687000000     0.409000000     2.838000000
H     5.606000000     0.116000000     1.355000000
O     5.000000000    -4.216000000     0.805000000
H     4.875000000    -3.341000000     0.438000000
H     4.519000000    -4.201000000     1.632000000
O     4.232000000    -7.085000000     2.373000000
H     4.886000000    -7.242000000     1.691000000
H     3.865000000    -6.227000000     2.158000000
O     5.251000000    -7.297000000    -0.437000000
H     6.055000000    -7.168000000    -0.940000000
H     5.024000000    -6.423000000    -0.119000000
O     8.605000000    -1.616000000     1.947000000
H     8.310000000    -2.447000000     1.575000000
H     9.526000000    -1.764000000     2.163000000
O     6.334000000    -2.378000000     3.734000000
H     7.069000000    -1.995000000     3.254000000
H     5.557000000    -2.073000000     3.266000000
O     6.872000000    -1.045000000    -0.174000000
H     5.951000000    -1.130000000     0.074000000
H     7.341000000    -1.000000000     0.660000000
O     8.495000000     1.847000000     1.647000000
H     7.601000000     1.512000000     1.718000000
H     9.013000000     1.268000000     2.205000000
O     4.421000000    -0.632000000     5.334000000
H     3.818000000     0.053000000     5.625000000
H     4.114000000    -0.865000000     4.458000000
O     3.605000000    -4.132000000     3.360000000
H     3.341000000    -3.225000000     3.203000000
H     2.985000000    -4.452000000     4.016000000
O     6.632000000     1.276000000     5.291000000
H     6.391000000     2.151000000     5.595000000
H     5.852000000     0.744000000     5.452000000
O     7.665000000    -3.858000000     0.640000000
H     7.819000000    -4.169000000    -0.252000000
H     6.712000000    -3.842000000     0.727000000
O     6.708000000    -4.301000000     5.533000000
H     6.585000000    -3.643000000     4.849000000
H     6.017000000    -4.944000000     5.375000000
O     1.953000000    -4.863000000     5.338000000
H     1.045000000    -4.789000000     5.044000000
H     2.040000000    -5.774000000     5.620000000
O     5.282000000    -1.964000000     7.714000000
H     4.983000000    -1.406000000     6.996000000
H     5.289000000    -2.847000000     7.343000000
