215
-1436.53482
C    -1.723000000    -0.431000000     5.360000000
H    -2.463000000    -1.145000000     5.010000000
C    -1.592000000     0.812000000     4.727000000
C    -0.483000000     1.589000000     5.016000000
H    -0.352000000     2.554000000     4.533000000
C    -2.398000000     1.180000000     3.533000000
O    -3.643000000     0.494000000     3.519000000
H    -1.899000000     1.037000000     2.564000000
O    -2.750000000     2.595000000     3.482000000
C    -2.721000000     3.213000000     2.224000000
C    -1.473000000     3.714000000     1.932000000
H    -0.696000000     3.855000000     2.678000000
C    -1.302000000     4.255000000     0.715000000
O    -0.070000000     4.796000000     0.488000000
C    -2.303000000     4.184000000    -0.318000000
C    -2.134000000     4.788000000    -1.726000000
H    -3.100000000     4.963000000    -2.206000000
C    -1.308000000     3.879000000    -2.581000000
C    -2.043000000     2.984000000    -3.352000000
H    -3.126000000     3.056000000    -3.407000000
H    -1.761000000     5.806000000    -1.596000000
C    -3.517000000     3.709000000     0.043000000
H    -4.258000000     3.568000000    -0.740000000
C    -3.717000000     3.115000000     1.287000000
C    -5.000000000     2.315000000     1.643000000
H    -5.881000000     2.704000000     1.129000000
H    -5.332000000     2.524000000     2.662000000
C    -4.888000000     0.812000000     1.412000000
C    -5.165000000     0.313000000     0.108000000
H    -5.510000000     0.881000000    -0.752000000
C    -4.209000000    -0.014000000     2.325000000
C    -3.911000000    -1.322000000     1.883000000
H    -3.318000000    -1.883000000     2.601000000
C    -4.116000000    -1.839000000     0.630000000
O    -3.636000000    -3.045000000     0.414000000
C    -2.501000000    -3.351000000    -0.404000000
C    -1.687000000    -4.346000000     0.248000000
C    -0.997000000    -5.249000000    -0.537000000
H    -1.024000000    -5.324000000    -1.621000000
C    -1.384000000    -4.299000000     1.619000000
H    -1.753000000    -3.500000000     2.256000000
O    -2.894000000    -3.614000000    -1.751000000
H    -1.985000000    -2.383000000    -0.481000000
C    -4.761000000    -1.006000000    -0.274000000
C    -5.049000000    -1.375000000    -1.712000000
H    -5.895000000    -0.829000000    -2.135000000
H    -5.410000000    -2.406000000    -1.718000000
C    -3.886000000    -1.489000000    -2.676000000
C    -3.675000000    -0.376000000    -3.507000000
H    -4.399000000     0.434000000    -3.519000000
C    -2.903000000    -2.550000000    -2.642000000
C    -1.772000000    -2.471000000    -3.391000000
H    -1.126000000    -3.346000000    -3.399000000
C    -1.531000000    -1.313000000    -4.149000000
O    -0.338000000    -1.201000000    -4.859000000
C     0.673000000    -0.434000000    -4.148000000
C     2.003000000    -1.123000000    -4.205000000
C     2.165000000    -2.517000000    -4.016000000
H     1.248000000    -3.091000000    -3.911000000
C     3.145000000    -0.345000000    -4.111000000
H     2.967000000     0.719000000    -3.981000000
O     0.708000000     0.915000000    -4.685000000
H     0.388000000    -0.212000000    -3.109000000
C    -2.450000000    -0.302000000    -4.224000000
C    -2.136000000     1.043000000    -4.969000000
H    -3.015000000     1.605000000    -5.291000000
H    -1.560000000     0.988000000    -5.895000000
C    -1.376000000     1.992000000    -4.107000000
C     0.035000000     1.981000000    -4.073000000
C     0.757000000     2.983000000    -3.429000000
H     1.843000000     2.956000000    -3.381000000
C     0.058000000     3.979000000    -2.688000000
O     0.741000000     4.782000000    -1.778000000
C     0.824000000     4.155000000    -0.447000000
H     0.415000000     3.144000000    -0.593000000
C     2.289000000     4.057000000    -0.054000000
C     2.636000000     3.840000000     1.257000000
H     1.771000000     3.848000000     1.915000000
C     3.340000000     4.173000000    -0.994000000
H     3.185000000     4.307000000    -2.062000000
C     4.665000000     4.048000000    -0.598000000
O     5.620000000     4.151000000    -1.627000000
C     4.975000000     3.722000000     0.710000000
H     5.981000000     3.545000000     1.084000000
C     3.938000000     3.668000000     1.651000000
O     4.298000000     3.413000000     2.977000000
C     3.471000000     3.724000000     4.068000000
C     2.584000000     2.769000000     4.595000000
H     2.564000000     1.795000000     4.113000000
C     3.618000000     4.951000000     4.683000000
H     4.245000000     5.639000000     4.121000000
C     2.891000000     5.285000000     5.822000000
H     2.966000000     6.236000000     6.343000000
C     2.057000000     4.278000000     6.338000000
H     1.529000000     4.559000000     7.245000000
C     1.926000000     3.037000000     5.794000000
O     1.297000000     2.101000000     6.570000000
C     0.376000000     1.312000000     6.037000000
C     0.227000000     0.077000000     6.654000000
H     0.922000000    -0.090000000     7.472000000
C    -0.797000000    -0.804000000     6.306000000
O    -0.966000000    -2.051000000     7.036000000
C    -1.318000000    -3.194000000     6.402000000
C    -0.533000000    -3.728000000     5.353000000
H     0.453000000    -3.292000000     5.220000000
C    -2.546000000    -3.760000000     6.582000000
H    -3.155000000    -3.352000000     7.385000000
C    -3.027000000    -4.773000000     5.776000000
H    -3.997000000    -5.235000000     5.942000000
C    -2.271000000    -5.132000000     4.641000000
H    -2.694000000    -5.839000000     3.932000000
C    -1.000000000    -4.685000000     4.500000000
O    -0.223000000    -5.223000000     3.547000000
C    -0.526000000    -5.215000000     2.175000000
C     0.180000000    -6.091000000     1.440000000
H     0.878000000    -6.778000000     1.911000000
C    -0.066000000    -6.125000000     0.040000000
O     0.706000000    -6.909000000    -0.704000000
C     1.162000000    -6.568000000    -1.991000000
C     2.121000000    -5.601000000    -2.153000000
H     2.599000000    -5.192000000    -1.266000000
C     0.644000000    -7.248000000    -3.070000000
H    -0.102000000    -8.007000000    -2.850000000
C     0.963000000    -6.793000000    -4.349000000
H     0.581000000    -7.317000000    -5.221000000
C     1.912000000    -5.770000000    -4.520000000
H     2.312000000    -5.530000000    -5.502000000
C     2.491000000    -5.206000000    -3.449000000
O     3.579000000    -4.428000000    -3.666000000
C     3.460000000    -3.073000000    -3.871000000
C     4.596000000    -2.222000000    -3.850000000
H     5.558000000    -2.641000000    -3.568000000
C     4.461000000    -0.859000000    -3.918000000
O     5.590000000    -0.092000000    -3.693000000
C     5.626000000     1.261000000    -3.907000000
C     5.459000000     1.780000000    -5.193000000
H     5.195000000     1.169000000    -6.052000000
C     5.440000000     3.198000000    -5.240000000
H     5.392000000     3.735000000    -6.184000000
C     5.416000000     3.939000000    -4.081000000
H     5.314000000     5.021000000    -4.110000000
C     5.574000000     3.373000000    -2.832000000
C     5.703000000     2.038000000    -2.789000000
H     5.827000000     1.595000000    -1.805000000
C     2.725000000     0.221000000     0.568000000
H     3.641000000     0.654000000     0.172000000
C     1.566000000     0.157000000    -0.228000000
H     1.465000000     0.464000000    -1.266000000
C     0.390000000    -0.461000000     0.371000000
H    -0.494000000    -0.644000000    -0.299000000
C     0.400000000    -0.892000000     1.734000000
H    -0.541000000    -1.287000000     2.107000000
C     1.528000000    -0.676000000     2.521000000
H     1.504000000    -1.029000000     3.549000000
C     2.746000000    -0.226000000     1.890000000
C     4.013000000    -0.154000000     2.692000000
O     4.045000000    -0.774000000     3.737000000
O     5.018000000     0.346000000     2.314000000
O     7.915000000     2.597000000     6.004000000
H     8.762000000     2.288000000     6.327000000
H     7.702000000     2.002000000     5.285000000
O     7.375000000    -1.607000000     7.433000000
H     6.891000000    -1.039000000     6.835000000
H     6.767000000    -1.771000000     8.154000000
O     5.209000000     2.636000000     6.898000000
H     5.950000000     2.632000000     6.291000000
H     4.749000000     1.816000000     6.720000000
O     7.362000000     1.235000000     3.412000000
H     7.991000000     1.373000000     2.704000000
H     6.516000000     1.162000000     2.970000000
O     8.203000000    -3.506000000     5.338000000
H     9.113000000    -3.235000000     5.219000000
H     7.875000000    -2.944000000     6.039000000
O     5.023000000    -3.140000000     4.059000000
H     4.377000000    -3.452000000     3.426000000
H     4.991000000    -2.186000000     3.983000000
O     8.247000000     0.623000000    -0.798000000
H     7.481000000     0.050000000    -0.771000000
H     8.606000000     0.503000000    -1.677000000
O     7.315000000    -3.671000000     2.779000000
H     6.387000000    -3.591000000     3.001000000
H     7.757000000    -3.758000000     3.624000000
O     4.826000000    -6.156000000     0.280000000
H     4.734000000    -5.406000000     0.868000000
H     5.710000000    -6.074000000    -0.077000000
O     3.964000000    -3.298000000     1.131000000
H     3.110000000    -3.113000000     0.741000000
H     4.431000000    -2.463000000     1.093000000
O     3.290000000     2.861000000     9.035000000
H     3.714000000     2.107000000     9.446000000
H     3.820000000     3.040000000     8.258000000
O     8.220000000    -3.569000000    -0.288000000
H     8.001000000    -3.749000000     0.626000000
H     9.176000000    -3.510000000    -0.298000000
O     3.094000000    -3.107000000     6.329000000
H     3.792000000    -3.101000000     5.675000000
H     3.180000000    -3.956000000     6.763000000
O     6.811000000     4.684000000     3.710000000
H     7.177000000     4.723000000     2.827000000
H     6.018000000     4.155000000     3.618000000
O     6.026000000    -0.028000000     5.402000000
H     6.479000000     0.585000000     4.824000000
H     5.215000000    -0.240000000     4.939000000
O     5.763000000    -4.606000000     6.087000000
H     5.598000000    -3.881000000     5.485000000
H     6.173000000    -5.279000000     5.544000000
O     6.239000000    -1.279000000     0.677000000
H     6.614000000    -1.779000000     1.402000000
H     5.718000000    -0.597000000     1.102000000
O     9.076000000     2.106000000     1.302000000
H     9.044000000     3.014000000     1.000000000
H     8.693000000     1.601000000     0.584000000
O     2.305000000    -1.892000000     8.708000000
H     1.590000000    -2.474000000     8.964000000
H     2.722000000    -2.336000000     7.969000000
