215
-1463.92496
C    -1.063000000    -1.911000000    -4.849000000
H    -0.660000000    -2.889000000    -4.597000000
C    -0.413000000    -0.687000000    -4.534000000
C    -1.121000000     0.516000000    -4.783000000
H    -0.704000000     1.481000000    -4.507000000
C     0.995000000    -0.638000000    -4.023000000
O     1.669000000    -1.863000000    -4.330000000
H     0.855000000    -0.538000000    -2.936000000
O     1.757000000     0.434000000    -4.604000000
C     2.564000000     1.054000000    -3.645000000
C     2.242000000     2.308000000    -3.217000000
H     1.395000000     2.770000000    -3.718000000
C     2.874000000     2.986000000    -2.187000000
O     2.273000000     4.145000000    -1.659000000
C     4.017000000     2.400000000    -1.632000000
C     4.809000000     3.040000000    -0.513000000
H     5.855000000     2.739000000    -0.602000000
C     4.178000000     2.698000000     0.879000000
C     4.670000000     1.679000000     1.633000000
H     5.428000000     1.030000000     1.203000000
H     4.793000000     4.131000000    -0.506000000
C     4.495000000     1.197000000    -2.135000000
H     5.380000000     0.749000000    -1.689000000
C     3.745000000     0.504000000    -3.134000000
C     4.221000000    -0.871000000    -3.632000000
H     5.305000000    -0.986000000    -3.562000000
H     3.973000000    -0.829000000    -4.694000000
C     3.520000000    -2.033000000    -2.874000000
C     4.050000000    -2.529000000    -1.657000000
H     4.982000000    -2.200000000    -1.203000000
C     2.268000000    -2.496000000    -3.287000000
C     1.416000000    -3.303000000    -2.532000000
H     0.434000000    -3.552000000    -2.925000000
C     1.951000000    -3.870000000    -1.378000000
O     1.199000000    -4.706000000    -0.552000000
C     0.560000000    -4.109000000     0.511000000
C    -0.871000000    -4.425000000     0.551000000
C    -1.676000000    -4.071000000     1.704000000
H    -1.219000000    -3.534000000     2.530000000
C    -1.555000000    -4.876000000    -0.546000000
H    -1.061000000    -5.123000000    -1.482000000
O     1.338000000    -4.461000000     1.663000000
H     0.594000000    -3.014000000     0.410000000
C     3.253000000    -3.455000000    -0.907000000
C     3.825000000    -4.033000000     0.347000000
H     4.911000000    -4.151000000     0.368000000
H     3.423000000    -5.043000000     0.455000000
C     3.384000000    -3.182000000     1.572000000
C     4.098000000    -2.037000000     1.956000000
H     5.085000000    -1.899000000     1.522000000
C     2.232000000    -3.531000000     2.209000000
C     1.753000000    -2.787000000     3.300000000
H     0.801000000    -3.031000000     3.765000000
C     2.541000000    -1.721000000     3.679000000
O     2.017000000    -0.862000000     4.641000000
C     1.420000000     0.352000000     4.158000000
C     0.066000000     0.751000000     4.748000000
C    -0.643000000    -0.260000000     5.415000000
H    -0.207000000    -1.179000000     5.797000000
C    -0.669000000     1.894000000     4.420000000
H    -0.190000000     2.651000000     3.805000000
O     2.338000000     1.429000000     4.415000000
H     1.203000000     0.333000000     3.080000000
C     3.687000000    -1.287000000     2.998000000
C     4.514000000    -0.095000000     3.491000000
H     5.588000000    -0.265000000     3.388000000
H     4.407000000     0.045000000     4.569000000
C     4.050000000     1.196000000     2.836000000
C     2.953000000     1.910000000     3.340000000
C     2.492000000     3.034000000     2.647000000
H     1.612000000     3.599000000     2.942000000
C     3.061000000     3.348000000     1.383000000
O     2.389000000     4.351000000     0.732000000
C     1.532000000     4.011000000    -0.472000000
H     1.231000000     2.966000000    -0.303000000
C     0.203000000     4.822000000    -0.468000000
C    -0.579000000     4.842000000    -1.638000000
H    -0.276000000     4.206000000    -2.466000000
C    -0.211000000     5.592000000     0.551000000
H     0.349000000     5.655000000     1.481000000
C    -1.382000000     6.356000000     0.555000000
O    -1.765000000     7.069000000     1.673000000
C    -2.219000000     6.266000000    -0.549000000
H    -3.123000000     6.868000000    -0.606000000
C    -1.787000000     5.512000000    -1.648000000
O    -2.590000000     5.635000000    -2.818000000
C    -2.326000000     4.867000000    -3.943000000
C    -2.980000000     3.657000000    -4.099000000
H    -3.668000000     3.283000000    -3.345000000
C    -1.627000000     5.416000000    -5.024000000
H    -1.028000000     6.323000000    -5.012000000
C    -1.604000000     4.735000000    -6.264000000
H    -1.056000000     5.191000000    -7.085000000
C    -2.179000000     3.465000000    -6.432000000
H    -2.080000000     2.836000000    -7.313000000
C    -2.803000000     2.928000000    -5.308000000
O    -3.221000000     1.624000000    -5.430000000
C    -2.445000000     0.436000000    -5.235000000
C    -3.052000000    -0.786000000    -5.439000000
H    -4.127000000    -0.779000000    -5.597000000
C    -2.370000000    -1.935000000    -5.239000000
O    -3.025000000    -3.089000000    -5.598000000
C    -3.125000000    -4.276000000    -4.933000000
C    -3.124000000    -4.300000000    -3.599000000
H    -2.975000000    -3.364000000    -3.066000000
C    -3.419000000    -5.397000000    -5.704000000
H    -3.342000000    -5.322000000    -6.786000000
C    -3.775000000    -6.623000000    -5.060000000
H    -4.107000000    -7.502000000    -5.606000000
C    -3.734000000    -6.611000000    -3.673000000
H    -4.000000000    -7.529000000    -3.156000000
C    -3.429000000    -5.501000000    -2.958000000
O    -3.751000000    -5.685000000    -1.617000000
C    -2.956000000    -5.076000000    -0.592000000
C    -3.647000000    -4.831000000     0.583000000
H    -4.705000000    -5.076000000     0.559000000
C    -3.057000000    -4.323000000     1.740000000
O    -3.867000000    -4.055000000     2.888000000
C    -3.315000000    -3.914000000     4.137000000
C    -3.230000000    -2.608000000     4.623000000
H    -3.568000000    -1.812000000     3.964000000
C    -2.723000000    -4.948000000     4.928000000
H    -2.582000000    -5.935000000     4.496000000
C    -2.169000000    -4.689000000     6.102000000
H    -1.645000000    -5.460000000     6.661000000
C    -2.182000000    -3.400000000     6.636000000
H    -1.773000000    -3.304000000     7.639000000
C    -2.667000000    -2.370000000     5.890000000
O    -2.615000000    -1.132000000     6.357000000
C    -1.986000000    -0.200000000     5.637000000
C    -2.693000000     0.953000000     5.277000000
H    -3.728000000     1.095000000     5.576000000
C    -2.023000000     1.998000000     4.621000000
O    -2.755000000     3.054000000     4.257000000
C    -2.296000000     4.365000000     4.196000000
C    -1.752000000     4.969000000     5.327000000
H    -1.769000000     4.491000000     6.303000000
C    -1.205000000     6.220000000     5.252000000
H    -0.808000000     6.659000000     6.164000000
C    -1.068000000     6.928000000     4.021000000
H    -0.541000000     7.876000000     3.948000000
C    -1.722000000     6.372000000     2.882000000
C    -2.262000000     5.098000000     3.003000000
H    -2.613000000     4.707000000     2.052000000
C    -1.586000000    -0.570000000     1.091000000
H    -2.231000000    -0.933000000     1.887000000
C    -0.277000000    -0.862000000     1.360000000
H    -0.044000000    -1.392000000     2.280000000
C     0.682000000    -0.434000000     0.401000000
H     1.722000000    -0.599000000     0.565000000
C     0.282000000     0.348000000    -0.641000000
H     1.019000000     0.855000000    -1.259000000
C    -1.074000000     0.590000000    -0.950000000
H    -1.299000000     1.198000000    -1.823000000
C    -2.026000000     0.256000000     0.014000000
C    -3.419000000     0.651000000    -0.409000000
O    -3.696000000     1.320000000    -1.405000000
O    -4.346000000     0.077000000     0.125000000
O    -5.039000000    -2.115000000    -1.280000000
H    -4.795000000    -1.255000000    -0.937000000
H    -5.660000000    -1.925000000    -1.983000000
O    -8.034000000    -0.829000000     1.178000000
H    -7.626000000    -0.017000000     0.878000000
H    -7.304000000    -1.359000000     1.499000000
O    -6.402000000    -5.069000000    -2.685000000
H    -6.944000000    -5.172000000    -1.903000000
H    -5.503000000    -5.151000000    -2.367000000
O    -5.577000000     1.558000000    -3.253000000
H    -4.787000000     1.224000000    -2.829000000
H    -5.758000000     2.385000000    -2.808000000
O    -6.048000000     4.321000000     1.933000000
H    -5.721000000     3.872000000     1.154000000
H    -6.586000000     5.035000000     1.591000000
O    -6.069000000     2.255000000    -6.013000000
H    -5.423000000     2.226000000    -6.719000000
H    -5.616000000     1.878000000    -5.259000000
O    -5.607000000     3.563000000     4.506000000
H    -4.779000000     3.095000000     4.620000000
H    -5.577000000     3.887000000     3.606000000
O    -7.348000000    -3.273000000    -0.011000000
H    -7.803000000    -2.461000000    -0.232000000
H    -6.421000000    -3.035000000    -0.006000000
O   -10.087000000     0.786000000    -2.229000000
H    -9.320000000     0.221000000    -2.139000000
H   -10.807000000     0.271000000    -1.866000000
O    -6.067000000     0.520000000     3.379000000
H    -5.689000000    -0.252000000     2.957000000
H    -5.333000000     0.923000000     3.843000000
O    -5.336000000    -1.762000000     2.158000000
H    -4.893000000    -1.238000000     1.491000000
H    -4.833000000    -2.576000000     2.197000000
O    -9.610000000     2.694000000    -0.456000000
H    -9.810000000     2.012000000    -1.096000000
H    -9.112000000     2.244000000     0.227000000
O    -6.310000000    -2.489000000    -4.762000000
H    -6.100000000    -2.632000000    -5.685000000
H    -6.168000000    -3.340000000    -4.349000000
O    -7.365000000    -0.688000000    -2.984000000
H    -7.136000000    -1.288000000    -3.695000000
H    -6.834000000     0.091000000    -3.148000000
O    -8.210000000     2.415000000     2.217000000
H    -7.552000000     1.721000000     2.168000000
H    -7.727000000     3.182000000     2.526000000
O    -6.624000000     1.210000000     0.066000000
H    -5.854000000     0.643000000     0.110000000
H    -6.295000000     2.034000000    -0.294000000
O    -5.103000000     3.390000000    -0.591000000
H    -4.465000000     2.772000000    -0.948000000
H    -4.953000000     4.199000000    -1.081000000
O    -5.923000000     6.002000000    -1.167000000
H    -6.789000000     5.595000000    -1.197000000
H    -5.883000000     6.416000000    -0.305000000
O    -9.318000000    -2.547000000    -2.773000000
H    -8.590000000    -1.941000000    -2.633000000
H    -9.051000000    -3.070000000    -3.528000000
