215
-1439.54534
C     5.099000000    -0.504000000    -1.480000000
H     5.218000000    -1.577000000    -1.603000000
C     4.724000000     0.115000000    -0.264000000
C     4.649000000     1.558000000    -0.224000000
H     4.097000000     1.960000000     0.622000000
C     4.101000000    -0.748000000     0.867000000
O     4.423000000    -2.141000000     0.582000000
H     3.026000000    -0.529000000     0.791000000
O     4.592000000    -0.351000000     2.214000000
C     3.715000000    -0.310000000     3.286000000
C     3.203000000     0.981000000     3.646000000
H     3.588000000     1.960000000     3.371000000
C     2.023000000     1.031000000     4.367000000
O     1.424000000     2.264000000     4.493000000
C     1.377000000    -0.096000000     4.817000000
C     0.073000000    -0.011000000     5.610000000
H    -0.018000000    -0.859000000     6.292000000
C    -1.095000000    -0.144000000     4.650000000
C    -1.754000000    -1.353000000     4.488000000
H    -1.513000000    -2.280000000     5.001000000
H    -0.006000000     0.816000000     6.319000000
C     2.000000000    -1.363000000     4.573000000
H     1.413000000    -2.208000000     4.923000000
C     3.110000000    -1.486000000     3.712000000
C     3.712000000    -2.849000000     3.345000000
H     3.518000000    -3.561000000     4.150000000
H     4.787000000    -2.798000000     3.164000000
C     3.012000000    -3.437000000     2.137000000
C     1.850000000    -4.208000000     2.199000000
H     1.532000000    -4.464000000     3.206000000
C     3.481000000    -3.084000000     0.850000000
C     2.840000000    -3.609000000    -0.292000000
H     3.225000000    -3.267000000    -1.249000000
C     1.666000000    -4.422000000    -0.199000000
O     0.975000000    -4.706000000    -1.346000000
C    -0.244000000    -4.052000000    -1.620000000
C    -0.442000000    -3.701000000    -3.075000000
C    -1.636000000    -3.846000000    -3.820000000
H    -2.447000000    -4.480000000    -3.473000000
C     0.550000000    -2.864000000    -3.579000000
H     1.514000000    -2.677000000    -3.113000000
O    -1.383000000    -4.823000000    -1.174000000
H    -0.223000000    -3.097000000    -1.075000000
C     1.153000000    -4.683000000     1.075000000
C    -0.096000000    -5.503000000     1.298000000
H    -0.044000000    -6.088000000     2.219000000
H    -0.081000000    -6.331000000     0.587000000
C    -1.418000000    -4.643000000     1.190000000
C    -2.014000000    -4.221000000     2.342000000
H    -1.647000000    -4.645000000     3.274000000
C    -1.994000000    -4.354000000    -0.071000000
C    -3.085000000    -3.542000000    -0.226000000
H    -3.423000000    -3.096000000    -1.158000000
C    -3.659000000    -2.984000000     0.961000000
O    -4.526000000    -2.011000000     0.666000000
C    -4.019000000    -0.634000000     0.770000000
C    -4.355000000     0.282000000    -0.379000000
C    -4.846000000    -0.309000000    -1.593000000
H    -5.039000000    -1.374000000    -1.692000000
C    -4.160000000     1.579000000    -0.224000000
H    -3.757000000     2.035000000     0.677000000
O    -4.352000000    -0.138000000     2.103000000
H    -2.930000000    -0.767000000     0.850000000
C    -3.141000000    -3.361000000     2.225000000
C    -3.605000000    -2.642000000     3.470000000
H    -3.578000000    -3.337000000     4.311000000
H    -4.647000000    -2.369000000     3.292000000
C    -2.869000000    -1.369000000     3.687000000
C    -3.311000000    -0.202000000     3.088000000
C    -2.617000000     0.995000000     3.297000000
H    -2.972000000     1.945000000     2.906000000
C    -1.548000000     1.033000000     4.087000000
O    -0.909000000     2.283000000     4.283000000
C     0.327000000     2.500000000     3.622000000
H     0.473000000     1.773000000     2.809000000
C     0.347000000     3.976000000     3.088000000
C     1.618000000     4.614000000     2.929000000
H     2.529000000     4.183000000     3.337000000
C    -0.766000000     4.682000000     2.626000000
H    -1.674000000     4.087000000     2.678000000
C    -0.695000000     6.013000000     2.126000000
O    -1.878000000     6.726000000     1.838000000
C     0.574000000     6.655000000     2.053000000
H     0.761000000     7.681000000     1.746000000
C     1.723000000     5.835000000     2.354000000
O     2.980000000     6.457000000     2.134000000
C     4.018000000     6.025000000     1.346000000
C     3.795000000     5.217000000     0.168000000
H     2.807000000     4.879000000    -0.134000000
C     5.296000000     6.249000000     1.805000000
H     5.648000000     6.950000000     2.558000000
C     6.354000000     5.622000000     1.196000000
H     7.353000000     5.932000000     1.490000000
C     6.169000000     4.862000000     0.036000000
H     6.992000000     4.439000000    -0.534000000
C     4.870000000     4.613000000    -0.489000000
O     4.587000000     3.622000000    -1.455000000
C     4.865000000     2.282000000    -1.384000000
C     5.293000000     1.637000000    -2.510000000
H     5.463000000     2.232000000    -3.404000000
C     5.471000000     0.272000000    -2.602000000
O     5.826000000    -0.288000000    -3.732000000
C     5.037000000    -1.182000000    -4.356000000
C     3.696000000    -0.871000000    -4.617000000
H     3.368000000     0.150000000    -4.438000000
C     5.597000000    -2.415000000    -4.609000000
H     6.670000000    -2.532000000    -4.479000000
C     4.778000000    -3.443000000    -5.148000000
H     5.139000000    -4.436000000    -5.405000000
C     3.400000000    -3.188000000    -5.433000000
H     2.806000000    -4.002000000    -5.841000000
C     2.818000000    -1.868000000    -5.131000000
O     1.489000000    -1.612000000    -5.463000000
C     0.397000000    -2.333000000    -4.922000000
C    -0.785000000    -2.499000000    -5.659000000
H    -0.834000000    -2.047000000    -6.646000000
C    -1.872000000    -3.167000000    -5.012000000
O    -2.981000000    -3.379000000    -5.781000000
C    -4.174000000    -2.776000000    -5.416000000
C    -4.276000000    -1.536000000    -4.720000000
H    -3.397000000    -0.939000000    -4.489000000
C    -5.296000000    -3.449000000    -5.816000000
H    -5.193000000    -4.408000000    -6.316000000
C    -6.564000000    -2.884000000    -5.634000000
H    -7.448000000    -3.412000000    -5.984000000
C    -6.689000000    -1.665000000    -4.908000000
H    -7.683000000    -1.235000000    -4.818000000
C    -5.557000000    -1.057000000    -4.404000000
O    -5.635000000     0.179000000    -3.817000000
C    -5.171000000     0.577000000    -2.632000000
C    -4.985000000     1.926000000    -2.494000000
H    -5.295000000     2.534000000    -3.340000000
C    -4.399000000     2.439000000    -1.301000000
O    -4.195000000     3.782000000    -1.257000000
C    -4.170000000     4.565000000    -0.101000000
C    -5.333000000     4.752000000     0.616000000
H    -6.240000000     4.215000000     0.354000000
C    -5.406000000     5.592000000     1.749000000
H    -6.273000000     5.722000000     2.391000000
C    -4.245000000     6.280000000     2.076000000
H    -4.224000000     6.959000000     2.925000000
C    -3.068000000     6.139000000     1.320000000
C    -3.038000000     5.304000000     0.211000000
H    -2.110000000     5.222000000    -0.349000000
C    -1.001000000     0.122000000    -1.283000000
H    -1.685000000    -0.434000000    -1.919000000
C    -0.526000000    -0.456000000    -0.045000000
H    -0.801000000    -1.496000000     0.109000000
C     0.442000000     0.171000000     0.717000000
H     0.883000000    -0.392000000     1.503000000
C     0.788000000     1.506000000     0.395000000
H     1.609000000     2.015000000     0.893000000
C     0.322000000     2.102000000    -0.766000000
H     0.682000000     3.125000000    -0.846000000
C    -0.519000000     1.418000000    -1.625000000
C    -0.779000000     2.060000000    -2.946000000
O    -0.427000000     3.171000000    -3.205000000
O    -1.272000000     1.400000000    -3.845000000
O    -2.490000000     7.396000000    -2.328000000
H    -2.065000000     8.004000000    -2.933000000
H    -3.192000000     6.998000000    -2.843000000
O     3.352000000     4.976000000    -6.828000000
H     3.367000000     5.150000000    -5.887000000
H     2.537000000     4.496000000    -6.970000000
O     1.155000000     4.245000000    -5.387000000
H     0.713000000     3.630000000    -4.802000000
H     0.523000000     4.953000000    -5.512000000
O     2.195000000     2.094000000    -7.056000000
H     2.316000000     2.612000000    -6.260000000
H     1.452000000     1.523000000    -6.859000000
O     1.801000000     7.635000000    -1.315000000
H     1.071000000     8.253000000    -1.339000000
H     1.537000000     6.928000000    -1.904000000
O    -5.116000000     0.788000000    -7.513000000
H    -4.768000000     0.997000000    -6.646000000
H    -4.675000000     1.400000000    -8.102000000
O    -0.092000000     0.465000000    -8.604000000
H     0.779000000     0.659000000    -8.949000000
H    -0.094000000     0.851000000    -7.728000000
O    -3.514000000     1.943000000    -5.333000000
H    -2.991000000     2.742000000    -5.396000000
H    -3.076000000     1.422000000    -4.660000000
O     0.600000000     3.679000000    -9.865000000
H     0.203000000     3.989000000    -9.051000000
H    -0.138000000     3.571000000   -10.465000000
O     1.432000000    -2.673000000    -8.427000000
H     0.961000000    -2.951000000    -9.213000000
H     0.768000000    -2.241000000    -7.890000000
O     0.255000000     5.682000000    -2.729000000
H    -0.672000000     5.884000000    -2.597000000
H     0.271000000     4.744000000    -2.919000000
O     4.464000000     5.307000000    -4.160000000
H     3.955000000     4.914000000    -3.451000000
H     5.313000000     5.503000000    -3.765000000
O    -4.037000000     5.963000000    -4.164000000
H    -4.382000000     6.133000000    -5.040000000
H    -4.812000000     5.927000000    -3.604000000
O    -2.924000000     1.751000000    -9.117000000
H    -2.562000000     2.557000000    -9.486000000
H    -2.185000000     1.143000000    -9.098000000
O    -1.604000000     6.347000000    -7.376000000
H    -1.558000000     5.864000000    -6.551000000
H    -0.833000000     6.913000000    -7.366000000
O    -6.098000000     3.214000000    -5.662000000
H    -5.351000000     2.736000000    -5.303000000
H    -6.276000000     3.899000000    -5.018000000
O     0.205000000     0.811000000    -6.005000000
H     0.862000000     0.284000000    -5.551000000
H    -0.512000000     0.894000000    -5.376000000
O    -1.679000000     4.744000000    -5.123000000
H    -1.342000000     4.049000000    -4.558000000
H    -2.575000000     4.888000000    -4.816000000
O     0.548000000     7.173000000    -5.083000000
H     0.600000000     6.661000000    -4.277000000
H     1.355000000     7.688000000    -5.093000000
