215
-1444.38028
C    -0.974000000    -0.457000000     4.794000000
H    -1.387000000    -1.177000000     4.092000000
C    -1.175000000     0.888000000     4.588000000
C    -0.469000000     1.880000000     5.291000000
H    -0.771000000     2.917000000     5.174000000
C    -2.073000000     1.212000000     3.417000000
O    -3.241000000     0.431000000     3.367000000
H    -1.544000000     0.893000000     2.506000000
O    -2.340000000     2.601000000     3.380000000
C    -2.420000000     3.310000000     2.146000000
C    -1.326000000     4.056000000     1.743000000
H    -0.432000000     4.144000000     2.355000000
C    -1.248000000     4.597000000     0.517000000
O    -0.018000000     5.098000000     0.120000000
C    -2.267000000     4.464000000    -0.439000000
C    -2.058000000     5.056000000    -1.841000000
H    -3.001000000     5.325000000    -2.321000000
C    -1.406000000     3.933000000    -2.632000000
C    -2.255000000     3.007000000    -3.278000000
H    -3.342000000     3.014000000    -3.314000000
H    -1.414000000     5.937000000    -1.808000000
C    -3.414000000     3.770000000    -0.086000000
H    -4.128000000     3.519000000    -0.866000000
C    -3.460000000     3.218000000     1.207000000
C    -4.612000000     2.326000000     1.642000000
H    -5.521000000     2.533000000     1.074000000
H    -4.817000000     2.586000000     2.683000000
C    -4.503000000     0.828000000     1.422000000
C    -5.001000000     0.275000000     0.251000000
H    -5.650000000     0.885000000    -0.372000000
C    -3.725000000    -0.037000000     2.223000000
C    -3.486000000    -1.406000000     1.867000000
H    -2.984000000    -2.129000000     2.505000000
C    -4.117000000    -1.846000000     0.691000000
O    -3.855000000    -3.117000000     0.429000000
C    -2.684000000    -3.325000000    -0.373000000
C    -1.771000000    -4.446000000     0.152000000
C    -0.610000000    -4.663000000    -0.580000000
H    -0.489000000    -4.247000000    -1.577000000
C    -1.864000000    -4.910000000     1.450000000
H    -2.745000000    -4.763000000     2.070000000
O    -3.050000000    -3.621000000    -1.669000000
H    -2.041000000    -2.434000000    -0.424000000
C    -4.795000000    -1.017000000    -0.104000000
C    -5.199000000    -1.541000000    -1.477000000
H    -5.985000000    -0.886000000    -1.858000000
H    -5.625000000    -2.534000000    -1.318000000
C    -4.107000000    -1.541000000    -2.486000000
C    -3.962000000    -0.424000000    -3.264000000
H    -4.546000000     0.457000000    -3.013000000
C    -3.198000000    -2.564000000    -2.580000000
C    -2.165000000    -2.410000000    -3.508000000
H    -1.324000000    -3.098000000    -3.496000000
C    -2.061000000    -1.269000000    -4.310000000
O    -0.874000000    -1.129000000    -5.080000000
C     0.218000000    -0.356000000    -4.437000000
C     1.542000000    -1.117000000    -4.493000000
C     1.619000000    -2.452000000    -4.876000000
H     0.713000000    -2.941000000    -5.225000000
C     2.668000000    -0.368000000    -4.075000000
H     2.638000000     0.628000000    -3.640000000
O     0.247000000     0.939000000    -4.914000000
H     0.057000000    -0.321000000    -3.349000000
C    -2.956000000    -0.248000000    -4.261000000
C    -2.639000000     1.038000000    -4.883000000
H    -3.607000000     1.451000000    -5.173000000
H    -2.157000000     0.813000000    -5.837000000
C    -1.797000000     2.002000000    -4.099000000
C    -0.376000000     1.857000000    -4.101000000
C     0.488000000     2.697000000    -3.400000000
H     1.518000000     2.393000000    -3.229000000
C    -0.015000000     3.813000000    -2.696000000
O     0.894000000     4.497000000    -1.861000000
C     0.958000000     4.171000000    -0.483000000
H     0.615000000     3.128000000    -0.420000000
C     2.328000000     4.354000000     0.105000000
C     2.533000000     4.361000000     1.519000000
H     1.712000000     4.389000000     2.231000000
C     3.477000000     4.217000000    -0.741000000
H     3.356000000     4.041000000    -1.806000000
C     4.746000000     4.042000000    -0.246000000
O     5.807000000     3.721000000    -1.041000000
C     4.979000000     4.233000000     1.133000000
H     6.020000000     4.185000000     1.440000000
C     3.816000000     4.289000000     1.974000000
O     4.100000000     4.172000000     3.319000000
C     3.205000000     4.380000000     4.323000000
C     2.729000000     3.313000000     5.082000000
H     3.077000000     2.319000000     4.813000000
C     2.682000000     5.689000000     4.501000000
H     2.957000000     6.358000000     3.690000000
C     1.633000000     5.921000000     5.367000000
H     1.199000000     6.917000000     5.392000000
C     1.183000000     4.856000000     6.142000000
H     0.338000000     4.932000000     6.822000000
C     1.701000000     3.547000000     6.014000000
O     1.118000000     2.553000000     6.789000000
C     0.468000000     1.531000000     6.200000000
C     0.665000000     0.153000000     6.460000000
H     1.380000000    -0.187000000     7.204000000
C    -0.090000000    -0.847000000     5.742000000
O     0.286000000    -2.197000000     5.839000000
C    -0.502000000    -3.336000000     5.755000000
C    -0.410000000    -4.090000000     4.567000000
H     0.290000000    -3.876000000     3.763000000
C    -1.388000000    -3.681000000     6.776000000
H    -1.583000000    -3.075000000     7.657000000
C    -2.189000000    -4.805000000     6.537000000
H    -2.983000000    -5.114000000     7.212000000
C    -2.017000000    -5.596000000     5.355000000
H    -2.513000000    -6.564000000     5.339000000
C    -1.160000000    -5.250000000     4.346000000
O    -0.907000000    -6.052000000     3.292000000
C    -0.873000000    -5.683000000     1.981000000
C     0.255000000    -6.065000000     1.208000000
H     1.060000000    -6.716000000     1.540000000
C     0.389000000    -5.505000000    -0.078000000
O     1.483000000    -5.774000000    -0.739000000
C     1.463000000    -6.008000000    -2.053000000
C     1.977000000    -5.015000000    -2.905000000
H     2.183000000    -4.033000000    -2.489000000
C     1.304000000    -7.303000000    -2.459000000
H     1.032000000    -8.065000000    -1.733000000
C     1.696000000    -7.729000000    -3.778000000
H     1.438000000    -8.727000000    -4.122000000
C     2.105000000    -6.723000000    -4.650000000
H     2.386000000    -6.994000000    -5.665000000
C     2.282000000    -5.387000000    -4.210000000
O     2.776000000    -4.466000000    -5.071000000
C     2.815000000    -3.107000000    -4.792000000
C     3.991000000    -2.434000000    -4.373000000
H     4.884000000    -3.028000000    -4.202000000
C     3.880000000    -1.106000000    -3.983000000
O     5.025000000    -0.520000000    -3.439000000
C     5.368000000     0.850000000    -3.390000000
C     5.683000000     1.427000000    -4.596000000
H     5.772000000     0.864000000    -5.522000000
C     5.951000000     2.746000000    -4.641000000
H     6.253000000     3.267000000    -5.546000000
C     5.969000000     3.525000000    -3.474000000
H     6.289000000     4.557000000    -3.595000000
C     5.668000000     2.950000000    -2.220000000
C     5.345000000     1.596000000    -2.187000000
H     5.079000000     1.078000000    -1.269000000
C     1.333000000    -1.302000000    -0.188000000
H     2.009000000    -2.138000000    -0.349000000
C     0.126000000    -1.303000000    -0.880000000
H    -0.100000000    -2.067000000    -1.619000000
C    -0.789000000    -0.315000000    -0.662000000
H    -1.825000000    -0.370000000    -1.143000000
C    -0.455000000     0.788000000     0.159000000
H    -1.133000000     1.629000000     0.278000000
C     0.702000000     0.748000000     0.922000000
H     0.960000000     1.695000000     1.390000000
C     1.663000000    -0.304000000     0.722000000
C     3.048000000    -0.187000000     1.239000000
O     3.248000000     0.526000000     2.211000000
O     3.946000000    -0.886000000     0.712000000
O     6.043000000    -2.719000000    -1.524000000
H     5.560000000    -3.181000000    -0.839000000
H     5.409000000    -2.103000000    -1.890000000
O     7.014000000    -0.076000000     4.203000000
H     7.962000000     0.050000000     4.221000000
H     6.678000000     0.694000000     3.744000000
O     6.551000000     2.734000000     5.720000000
H     6.260000000     2.933000000     4.830000000
H     5.802000000     2.295000000     6.124000000
O     5.400000000     1.817000000     2.941000000
H     4.585000000     1.354000000     2.748000000
H     5.130000000     2.723000000     3.091000000
O     3.116000000    -2.804000000     7.093000000
H     4.065000000    -2.788000000     7.215000000
H     2.951000000    -2.151000000     6.413000000
O     3.929000000    -3.864000000     4.018000000
H     4.297000000    -3.048000000     3.678000000
H     3.446000000    -3.600000000     4.801000000
O     7.024000000    -5.470000000    -1.966000000
H     7.696000000    -5.455000000    -2.647000000
H     6.672000000    -4.580000000    -1.957000000
O     8.216000000     2.500000000     0.774000000
H     8.169000000     2.659000000    -0.169000000
H     7.609000000     1.775000000     0.924000000
O     5.379000000    -1.899000000     2.657000000
H     5.669000000    -1.249000000     3.297000000
H     4.857000000    -1.400000000     2.029000000
O     4.785000000    -6.533000000     1.136000000
H     4.880000000    -5.585000000     1.044000000
H     4.802000000    -6.864000000     0.238000000
O     4.645000000    -3.908000000     0.700000000
H     3.696000000    -3.798000000     0.642000000
H     4.907000000    -3.347000000     1.430000000
O     7.636000000    -3.486000000     2.856000000
H     6.754000000    -3.116000000     2.837000000
H     8.060000000    -3.058000000     3.600000000
O     2.776000000    -0.916000000     4.631000000
H     1.827000000    -0.985000000     4.735000000
H     2.894000000    -0.305000000     3.904000000
O     7.759000000    -2.803000000     5.718000000
H     7.288000000    -1.987000000     5.549000000
H     7.884000000    -2.815000000     6.667000000
O     9.677000000    -3.208000000     0.751000000
H     9.084000000    -3.352000000     1.489000000
H     9.437000000    -3.883000000     0.116000000
O     8.636000000    -2.339000000    -2.774000000
H     8.644000000    -2.877000000    -3.566000000
H     7.736000000    -2.020000000    -2.709000000
O     4.367000000     0.390000000     6.592000000
H     4.907000000    -0.358000000     6.848000000
H     3.734000000     0.026000000     5.972000000
O     4.556000000    -6.765000000     4.641000000
H     4.389000000    -7.524000000     4.082000000
H     4.401000000    -6.011000000     4.073000000
O     7.274000000    -0.287000000     0.134000000
H     7.667000000    -1.033000000    -0.320000000
H     6.339000000    -0.489000000     0.161000000
