215
-1448.03446
C    -0.625000000     0.150000000     4.405000000
H    -0.964000000    -0.716000000     3.842000000
C    -1.305000000     1.374000000     4.350000000
C    -0.804000000     2.517000000     5.050000000
H    -1.335000000     3.461000000     5.132000000
C    -2.487000000     1.633000000     3.470000000
O    -3.623000000     0.765000000     3.753000000
H    -2.178000000     1.168000000     2.522000000
O    -2.914000000     3.070000000     3.316000000
C    -2.875000000     3.485000000     2.010000000
C    -1.754000000     4.189000000     1.601000000
H    -1.047000000     4.488000000     2.370000000
C    -1.573000000     4.519000000     0.263000000
O    -0.367000000     4.861000000    -0.203000000
C    -2.551000000     4.109000000    -0.690000000
C    -2.347000000     4.416000000    -2.142000000
H    -3.282000000     4.644000000    -2.657000000
C    -1.671000000     3.362000000    -2.932000000
C    -2.424000000     2.357000000    -3.546000000
H    -3.492000000     2.209000000    -3.406000000
H    -1.771000000     5.339000000    -2.234000000
C    -3.743000000     3.458000000    -0.222000000
H    -4.497000000     3.226000000    -0.970000000
C    -3.913000000     3.195000000     1.103000000
C    -5.065000000     2.308000000     1.630000000
H    -5.961000000     2.621000000     1.088000000
H    -5.348000000     2.689000000     2.613000000
C    -4.798000000     0.826000000     1.599000000
C    -5.090000000     0.100000000     0.426000000
H    -5.526000000     0.659000000    -0.398000000
C    -4.059000000     0.127000000     2.602000000
C    -3.755000000    -1.229000000     2.491000000
H    -3.234000000    -1.760000000     3.284000000
C    -4.035000000    -1.863000000     1.253000000
O    -3.529000000    -3.099000000     1.049000000
C    -2.368000000    -3.419000000     0.150000000
C    -1.444000000    -4.392000000     0.758000000
C    -0.558000000    -5.090000000    -0.086000000
H    -0.649000000    -5.090000000    -1.169000000
C    -1.371000000    -4.430000000     2.162000000
H    -2.062000000    -3.857000000     2.776000000
O    -2.859000000    -3.817000000    -1.130000000
H    -1.781000000    -2.502000000    -0.013000000
C    -4.582000000    -1.172000000     0.207000000
C    -4.998000000    -1.844000000    -1.071000000
H    -5.806000000    -1.323000000    -1.590000000
H    -5.435000000    -2.839000000    -0.965000000
C    -3.866000000    -1.880000000    -2.099000000
C    -3.754000000    -0.777000000    -3.005000000
H    -4.491000000     0.017000000    -2.916000000
C    -2.884000000    -2.834000000    -2.070000000
C    -1.939000000    -2.918000000    -3.099000000
H    -1.140000000    -3.649000000    -3.199000000
C    -1.960000000    -1.946000000    -4.119000000
O    -0.770000000    -1.845000000    -4.849000000
C     0.236000000    -0.937000000    -4.364000000
C     1.615000000    -1.625000000    -4.621000000
C     1.914000000    -2.966000000    -4.320000000
H     1.095000000    -3.594000000    -3.979000000
C     2.707000000    -0.849000000    -4.971000000
H     2.585000000     0.195000000    -5.247000000
O     0.134000000     0.335000000    -5.092000000
H     0.264000000    -0.667000000    -3.298000000
C    -2.805000000    -0.835000000    -4.026000000
C    -2.679000000     0.320000000    -4.983000000
H    -3.698000000     0.696000000    -5.096000000
H    -2.364000000    -0.065000000    -5.956000000
C    -1.864000000     1.407000000    -4.405000000
C    -0.453000000     1.391000000    -4.525000000
C     0.341000000     2.258000000    -3.815000000
H     1.415000000     2.148000000    -3.945000000
C    -0.296000000     3.220000000    -3.018000000
O     0.512000000     3.980000000    -2.238000000
C     0.476000000     3.807000000    -0.802000000
H    -0.065000000     2.857000000    -0.681000000
C     1.872000000     3.647000000    -0.149000000
C     2.147000000     4.238000000     1.090000000
H     1.353000000     4.814000000     1.559000000
C     2.826000000     2.919000000    -0.835000000
H     2.585000000     2.360000000    -1.736000000
C     4.102000000     2.800000000    -0.268000000
O     5.041000000     2.104000000    -0.998000000
C     4.433000000     3.538000000     0.800000000
H     5.458000000     3.712000000     1.117000000
C     3.470000000     4.205000000     1.555000000
O     3.813000000     4.889000000     2.644000000
C     2.908000000     5.155000000     3.638000000
C     2.427000000     4.107000000     4.397000000
H     2.748000000     3.084000000     4.216000000
C     2.581000000     6.465000000     3.894000000
H     3.090000000     7.237000000     3.323000000
C     1.667000000     6.787000000     4.920000000
H     1.321000000     7.804000000     5.091000000
C     1.089000000     5.713000000     5.739000000
H     0.402000000     5.912000000     6.557000000
C     1.434000000     4.401000000     5.411000000
O     0.927000000     3.438000000     6.262000000
C     0.403000000     2.366000000     5.711000000
C     1.072000000     1.213000000     5.718000000
H     2.050000000     1.269000000     6.190000000
C     0.571000000     0.130000000     5.092000000
O     1.294000000    -1.051000000     5.148000000
C     0.666000000    -2.218000000     5.533000000
C     0.548000000    -3.236000000     4.621000000
H     1.075000000    -3.171000000     3.672000000
C     0.205000000    -2.358000000     6.818000000
H     0.414000000    -1.561000000     7.528000000
C    -0.344000000    -3.585000000     7.336000000
H    -0.523000000    -3.878000000     8.368000000
C    -0.437000000    -4.567000000     6.355000000
H    -0.802000000    -5.563000000     6.592000000
C    -0.116000000    -4.396000000     4.961000000
O    -0.306000000    -5.430000000     4.089000000
C    -0.446000000    -5.302000000     2.764000000
C     0.401000000    -6.076000000     1.950000000
H     1.095000000    -6.754000000     2.440000000
C     0.393000000    -5.951000000     0.554000000
O     1.382000000    -6.608000000    -0.146000000
C     1.573000000    -6.520000000    -1.481000000
C     2.346000000    -5.489000000    -2.091000000
H     2.931000000    -4.712000000    -1.605000000
C     1.005000000    -7.568000000    -2.204000000
H     0.432000000    -8.316000000    -1.662000000
C     1.293000000    -7.637000000    -3.549000000
H     0.850000000    -8.394000000    -4.192000000
C     2.082000000    -6.613000000    -4.184000000
H     2.244000000    -6.634000000    -5.258000000
C     2.611000000    -5.610000000    -3.454000000
O     3.459000000    -4.750000000    -4.108000000
C     3.197000000    -3.443000000    -4.342000000
C     4.246000000    -2.624000000    -4.619000000
H     5.257000000    -3.022000000    -4.640000000
C     3.980000000    -1.312000000    -4.950000000
O     5.007000000    -0.379000000    -5.083000000
C     5.080000000     0.822000000    -4.428000000
C     5.093000000     2.006000000    -5.227000000
H     5.132000000     1.942000000    -6.312000000
C     5.050000000     3.167000000    -4.538000000
H     5.202000000     4.081000000    -5.106000000
C     5.080000000     3.222000000    -3.123000000
H     5.072000000     4.158000000    -2.570000000
C     5.094000000     2.072000000    -2.370000000
C     5.016000000     0.870000000    -3.036000000
H     4.970000000    -0.085000000    -2.519000000
C     2.182000000    -1.734000000    -0.290000000
H     2.769000000    -2.517000000    -0.764000000
C     0.836000000    -1.696000000    -0.585000000
H     0.482000000    -2.495000000    -1.230000000
C     0.040000000    -0.807000000     0.109000000
H    -0.996000000    -0.626000000    -0.173000000
C     0.617000000     0.075000000     1.021000000
H     0.009000000     0.779000000     1.584000000
C     1.987000000     0.116000000     1.277000000
H     2.443000000     0.820000000     1.970000000
C     2.828000000    -0.813000000     0.581000000
C     4.226000000    -0.985000000     0.968000000
O     4.668000000    -0.237000000     1.803000000
O     4.805000000    -1.960000000     0.580000000
O     5.451000000    -3.517000000    -1.523000000
H     5.081000000    -2.868000000    -0.925000000
H     5.222000000    -4.361000000    -1.133000000
O     5.243000000    -3.449000000     4.960000000
H     5.387000000    -3.953000000     4.159000000
H     5.386000000    -2.539000000     4.698000000
O     7.698000000     1.281000000     5.633000000
H     7.685000000     1.366000000     4.680000000
H     6.940000000     1.785000000     5.929000000
O     7.258000000     0.420000000     2.210000000
H     6.362000000     0.124000000     2.054000000
H     7.570000000     0.703000000     1.350000000
O     4.480000000     0.944000000     6.455000000
H     4.308000000     1.303000000     7.325000000
H     4.269000000     0.013000000     6.534000000
O     4.319000000    -1.613000000     7.203000000
H     4.966000000    -2.015000000     7.783000000
H     4.108000000    -2.299000000     6.569000000
O     5.727000000    -1.086000000     4.017000000
H     6.430000000    -0.471000000     3.810000000
H     5.064000000    -0.928000000     3.344000000
O     7.552000000    -6.090000000    -0.116000000
H     7.272000000    -5.376000000     0.455000000
H     8.143000000    -5.677000000    -0.745000000
O     4.606000000    -5.860000000    -0.057000000
H     5.399000000    -6.376000000    -0.203000000
H     3.908000000    -6.511000000     0.020000000
O     5.283000000    -4.375000000     2.231000000
H     5.406000000    -3.498000000     1.868000000
H     4.746000000    -4.830000000     1.583000000
O     5.337000000     1.843000000     3.978000000
H     4.979000000     1.599000000     4.832000000
H     4.919000000     1.239000000     3.363000000
O     8.605000000    -3.850000000     1.327000000
H     8.754000000    -2.994000000     0.925000000
H     9.483000000    -4.180000000     1.519000000
O     8.759000000     3.180000000     2.272000000
H     9.465000000     2.533000000     2.276000000
H     8.156000000     2.873000000     1.596000000
O     7.556000000    -2.760000000    -2.901000000
H     8.097000000    -3.529000000    -2.720000000
H     6.661000000    -3.050000000    -2.723000000
O     5.687000000    -7.034000000     3.157000000
H     5.527000000    -6.118000000     2.928000000
H     4.822000000    -7.381000000     3.375000000
O     7.249000000    -1.236000000    -0.557000000
H     7.078000000    -1.916000000    -1.209000000
H     6.603000000    -1.397000000     0.131000000
O     8.272000000     1.384000000    -0.279000000
H     8.094000000     0.449000000    -0.378000000
H     8.214000000     1.735000000    -1.167000000
O     9.884000000    -1.165000000    -0.102000000
H     8.943000000    -1.014000000    -0.193000000
H    10.217000000    -1.142000000    -0.999000000
O     8.713000000    -1.816000000     3.883000000
H     8.243000000    -2.431000000     4.447000000
H     8.039000000    -1.461000000     3.304000000
