215
-1467.64789
C    -0.621000000    -0.048000000     4.692000000
H    -0.998000000    -0.977000000     4.271000000
C    -1.285000000     1.124000000     4.339000000
C    -0.808000000     2.339000000     4.788000000
H    -1.352000000     3.239000000     4.514000000
C    -2.432000000     1.106000000     3.288000000
O    -3.302000000     0.038000000     3.479000000
H    -1.869000000     0.951000000     2.355000000
O    -3.143000000     2.273000000     3.243000000
C    -3.387000000     2.946000000     2.085000000
C    -2.384000000     3.766000000     1.599000000
H    -1.460000000     3.971000000     2.135000000
C    -2.483000000     4.244000000     0.302000000
O    -1.425000000     5.037000000    -0.089000000
C    -3.394000000     3.781000000    -0.620000000
C    -3.254000000     4.028000000    -2.130000000
H    -4.198000000     4.146000000    -2.665000000
C    -2.307000000     3.121000000    -2.849000000
C    -2.847000000     2.070000000    -3.549000000
H    -3.929000000     1.963000000    -3.547000000
H    -2.900000000     5.044000000    -2.316000000
C    -4.399000000     3.004000000    -0.104000000
H    -5.143000000     2.758000000    -0.858000000
C    -4.408000000     2.532000000     1.209000000
C    -5.337000000     1.381000000     1.601000000
H    -6.300000000     1.483000000     1.097000000
H    -5.551000000     1.556000000     2.657000000
C    -4.638000000    -0.013000000     1.346000000
C    -4.904000000    -0.756000000     0.216000000
H    -5.366000000    -0.241000000    -0.623000000
C    -3.808000000    -0.575000000     2.370000000
C    -3.300000000    -1.846000000     2.122000000
H    -2.576000000    -2.217000000     2.843000000
C    -3.655000000    -2.558000000     0.991000000
O    -3.004000000    -3.746000000     0.880000000
C    -1.831000000    -3.705000000    -0.049000000
C    -0.655000000    -4.554000000     0.397000000
C    -0.132000000    -5.538000000    -0.374000000
H    -0.678000000    -5.893000000    -1.244000000
C     0.037000000    -4.031000000     1.453000000
H    -0.251000000    -3.100000000     1.936000000
O    -2.478000000    -4.219000000    -1.297000000
H    -1.550000000    -2.650000000    -0.184000000
C    -4.453000000    -2.038000000    -0.020000000
C    -4.771000000    -2.703000000    -1.361000000
H    -5.718000000    -2.275000000    -1.696000000
H    -4.893000000    -3.774000000    -1.185000000
C    -3.623000000    -2.491000000    -2.341000000
C    -3.702000000    -1.480000000    -3.344000000
H    -4.648000000    -0.959000000    -3.469000000
C    -2.538000000    -3.338000000    -2.350000000
C    -1.476000000    -3.099000000    -3.263000000
H    -0.565000000    -3.674000000    -3.121000000
C    -1.554000000    -2.035000000    -4.216000000
O    -0.471000000    -1.711000000    -5.024000000
C     0.481000000    -0.798000000    -4.311000000
C     1.945000000    -1.321000000    -4.405000000
C     2.157000000    -2.608000000    -4.638000000
H     1.325000000    -3.276000000    -4.848000000
C     2.985000000    -0.481000000    -3.937000000
H     2.698000000     0.534000000    -3.676000000
O     0.333000000     0.530000000    -4.866000000
H     0.263000000    -0.767000000    -3.234000000
C    -2.675000000    -1.226000000    -4.238000000
C    -2.644000000     0.044000000    -5.097000000
H    -3.681000000     0.204000000    -5.400000000
H    -2.190000000    -0.239000000    -6.049000000
C    -1.999000000     1.151000000    -4.257000000
C    -0.586000000     1.330000000    -4.236000000
C    -0.110000000     2.405000000    -3.433000000
H     0.976000000     2.441000000    -3.402000000
C    -0.969000000     3.258000000    -2.751000000
O    -0.385000000     4.348000000    -2.101000000
C    -0.289000000     4.283000000    -0.641000000
H    -0.390000000     3.231000000    -0.335000000
C     1.076000000     4.689000000    -0.034000000
C     1.139000000     5.413000000     1.111000000
H     0.255000000     5.846000000     1.571000000
C     2.232000000     4.038000000    -0.528000000
H     2.214000000     3.361000000    -1.378000000
C     3.439000000     4.301000000     0.125000000
O     4.630000000     3.691000000    -0.294000000
C     3.520000000     5.136000000     1.216000000
H     4.449000000     5.247000000     1.770000000
C     2.382000000     5.697000000     1.704000000
O     2.527000000     6.538000000     2.835000000
C     1.991000000     6.254000000     4.026000000
C     1.608000000     4.996000000     4.436000000
H     1.915000000     4.119000000     3.872000000
C     1.645000000     7.333000000     4.900000000
H     1.983000000     8.333000000     4.640000000
C     1.120000000     7.095000000     6.180000000
H     1.029000000     7.874000000     6.933000000
C     0.841000000     5.786000000     6.547000000
H     0.419000000     5.612000000     7.534000000
C     0.980000000     4.752000000     5.701000000
O     0.831000000     3.498000000     6.224000000
C     0.254000000     2.372000000     5.681000000
C     0.825000000     1.190000000     6.175000000
H     1.664000000     1.224000000     6.866000000
C     0.290000000    -0.016000000     5.751000000
O     0.881000000    -1.200000000     6.314000000
C     0.829000000    -2.469000000     5.776000000
C     1.502000000    -2.697000000     4.632000000
H     1.937000000    -1.855000000     4.099000000
C     0.176000000    -3.518000000     6.390000000
H    -0.343000000    -3.234000000     7.302000000
C     0.192000000    -4.836000000     5.808000000
H    -0.460000000    -5.581000000     6.255000000
C     0.972000000    -5.078000000     4.678000000
H     0.878000000    -6.053000000     4.206000000
C     1.568000000    -4.012000000     4.052000000
O     2.067000000    -4.037000000     2.805000000
C     1.366000000    -4.579000000     1.720000000
C     1.844000000    -5.633000000     1.001000000
H     2.734000000    -6.152000000     1.346000000
C     1.140000000    -5.996000000    -0.128000000
O     1.775000000    -6.920000000    -0.959000000
C     1.969000000    -6.709000000    -2.271000000
C     2.658000000    -5.564000000    -2.775000000
H     2.906000000    -4.762000000    -2.084000000
C     1.517000000    -7.678000000    -3.187000000
H     0.913000000    -8.497000000    -2.807000000
C     1.831000000    -7.597000000    -4.597000000
H     1.399000000    -8.273000000    -5.331000000
C     2.634000000    -6.524000000    -5.040000000
H     2.861000000    -6.348000000    -6.088000000
C     3.018000000    -5.553000000    -4.100000000
O     3.777000000    -4.486000000    -4.536000000
C     3.420000000    -3.217000000    -4.342000000
C     4.448000000    -2.438000000    -3.874000000
H     5.407000000    -2.889000000    -3.629000000
C     4.232000000    -1.017000000    -3.647000000
O     5.114000000    -0.219000000    -2.977000000
C     5.059000000     1.158000000    -2.903000000
C     4.994000000     1.917000000    -4.070000000
H     5.227000000     1.410000000    -5.003000000
C     4.755000000     3.262000000    -3.992000000
H     4.775000000     3.962000000    -4.823000000
C     4.680000000     3.869000000    -2.732000000
H     4.454000000     4.917000000    -2.551000000
C     4.740000000     3.119000000    -1.531000000
C     4.843000000     1.744000000    -1.654000000
H     4.918000000     1.122000000    -0.766000000
C     2.207000000    -1.341000000    -0.525000000
H     3.014000000    -2.046000000    -0.707000000
C     0.968000000    -1.532000000    -1.102000000
H     0.810000000    -2.351000000    -1.798000000
C    -0.084000000    -0.744000000    -0.815000000
H    -1.069000000    -1.002000000    -1.292000000
C     0.054000000     0.295000000     0.106000000
H    -0.795000000     0.932000000     0.341000000
C     1.326000000     0.490000000     0.700000000
H     1.494000000     1.332000000     1.366000000
C     2.420000000    -0.333000000     0.420000000
C     3.762000000    -0.215000000     1.170000000
O     3.963000000     0.671000000     1.975000000
O     4.599000000    -1.091000000     1.064000000
O     6.071000000    -3.575000000     1.025000000
H     5.412000000    -2.882000000     1.017000000
H     6.304000000    -3.694000000     0.104000000
O     4.663000000     0.291000000     5.686000000
H     4.366000000     0.430000000     6.585000000
H     4.395000000    -0.606000000     5.482000000
O     9.756000000     2.725000000    -0.921000000
H    10.309000000     2.232000000    -1.528000000
H     9.701000000     2.171000000    -0.143000000
O     5.934000000     2.492000000     1.936000000
H     5.116000000     1.994000000     1.934000000
H     5.986000000     2.870000000     1.059000000
O     6.568000000    -0.651000000     2.851000000
H     5.900000000    -0.729000000     2.170000000
H     6.320000000     0.132000000     3.342000000
O     4.492000000    -4.258000000     6.175000000
H     5.447000000    -4.187000000     6.154000000
H     4.192000000    -3.641000000     5.508000000
O     5.533000000     3.816000000     5.222000000
H     5.253000000     3.780000000     6.137000000
H     4.921000000     3.242000000     4.762000000
O     7.160000000     5.704000000     1.537000000
H     6.405000000     6.105000000     1.969000000
H     7.448000000     5.021000000     2.143000000
O     4.644000000    -2.184000000     4.281000000
H     5.378000000    -1.667000000     3.950000000
H     4.040000000    -2.242000000     3.541000000
O     8.313000000    -2.538000000     2.156000000
H     7.812000000    -3.328000000     1.951000000
H     7.648000000    -1.870000000     2.322000000
O     3.439000000     2.266000000     4.417000000
H     3.755000000     1.530000000     4.941000000
H     3.391000000     1.922000000     3.525000000
O     7.774000000     3.663000000     3.519000000
H     7.175000000     3.866000000     4.237000000
H     7.312000000     3.004000000     3.001000000
O     5.571000000    -6.063000000     2.276000000
H     5.499000000    -5.120000000     2.133000000
H     5.838000000    -6.147000000     3.192000000
O     6.668000000    -0.995000000    -0.556000000
H     6.260000000    -1.067000000    -1.419000000
H     5.939000000    -1.065000000     0.060000000
O    10.501000000     1.759000000     3.437000000
H     9.744000000     2.344000000     3.422000000
H    10.530000000     1.381000000     2.558000000
O     9.153000000    -0.533000000    -2.250000000
H     8.887000000    -1.314000000    -2.735000000
H     8.503000000    -0.450000000    -1.553000000
O     8.743000000     1.116000000     1.081000000
H     8.615000000     0.304000000     1.570000000
H     7.866000000     1.359000000     0.784000000
O     8.385000000    -2.752000000    -3.622000000
H     8.156000000    -3.465000000    -3.025000000
H     8.718000000    -3.192000000    -4.404000000
O    11.011000000    -1.728000000     1.574000000
H    10.173000000    -2.181000000     1.480000000
H    11.338000000    -1.640000000     0.679000000
