215
-1436.43133
C    -0.523000000     0.408000000     4.943000000
H    -0.908000000    -0.593000000     4.768000000
C    -1.085000000     1.499000000     4.334000000
C    -0.514000000     2.786000000     4.453000000
H    -0.980000000     3.679000000     4.043000000
C    -2.302000000     1.273000000     3.402000000
O    -3.166000000     0.191000000     3.792000000
H    -1.995000000     1.042000000     2.372000000
O    -3.071000000     2.428000000     3.230000000
C    -3.456000000     2.937000000     1.974000000
C    -2.637000000     3.856000000     1.341000000
H    -1.847000000     4.278000000     1.958000000
C    -2.704000000     4.007000000    -0.101000000
O    -1.670000000     4.751000000    -0.668000000
C    -3.656000000     3.305000000    -0.842000000
C    -3.642000000     3.445000000    -2.380000000
H    -4.651000000     3.201000000    -2.717000000
C    -2.642000000     2.502000000    -3.048000000
C    -3.241000000     1.328000000    -3.598000000
H    -4.277000000     1.118000000    -3.344000000
H    -3.445000000     4.480000000    -2.670000000
C    -4.494000000     2.386000000    -0.213000000
H    -5.157000000     1.700000000    -0.734000000
C    -4.343000000     2.156000000     1.183000000
C    -5.179000000     1.056000000     1.866000000
H    -6.214000000     1.003000000     1.521000000
H    -5.330000000     1.295000000     2.921000000
C    -4.521000000    -0.304000000     1.850000000
C    -4.644000000    -1.143000000     0.791000000
H    -5.342000000    -0.864000000     0.006000000
C    -3.563000000    -0.641000000     2.798000000
C    -2.846000000    -1.828000000     2.772000000
H    -2.143000000    -2.129000000     3.544000000
C    -3.188000000    -2.759000000     1.834000000
O    -2.327000000    -3.826000000     1.855000000
C    -1.292000000    -3.918000000     0.819000000
C     0.026000000    -4.462000000     1.450000000
C     1.094000000    -4.777000000     0.613000000
H     0.927000000    -4.795000000    -0.461000000
C     0.265000000    -4.591000000     2.785000000
H    -0.563000000    -4.306000000     3.428000000
O    -1.699000000    -4.713000000    -0.399000000
H    -1.024000000    -2.908000000     0.476000000
C    -3.955000000    -2.349000000     0.800000000
C    -4.305000000    -3.343000000    -0.252000000
H    -5.351000000    -3.269000000    -0.553000000
H    -4.332000000    -4.381000000     0.085000000
C    -3.385000000    -3.239000000    -1.408000000
C    -3.641000000    -2.325000000    -2.458000000
H    -4.596000000    -1.822000000    -2.328000000
C    -2.165000000    -3.957000000    -1.422000000
C    -1.284000000    -3.698000000    -2.443000000
H    -0.299000000    -4.125000000    -2.269000000
C    -1.542000000    -2.819000000    -3.473000000
O    -0.478000000    -2.547000000    -4.349000000
C     0.195000000    -1.291000000    -4.204000000
C     1.715000000    -1.543000000    -4.576000000
C     2.341000000    -2.779000000    -4.160000000
H     1.704000000    -3.572000000    -3.775000000
C     2.528000000    -0.460000000    -5.045000000
H     2.232000000     0.564000000    -5.256000000
O    -0.320000000    -0.276000000    -5.100000000
H     0.197000000    -0.950000000    -3.158000000
C    -2.783000000    -2.141000000    -3.501000000
C    -3.090000000    -1.046000000    -4.534000000
H    -4.140000000    -0.995000000    -4.827000000
H    -2.730000000    -1.347000000    -5.520000000
C    -2.422000000     0.313000000    -4.141000000
C    -1.133000000     0.645000000    -4.458000000
C    -0.558000000     1.839000000    -3.997000000
H     0.499000000     2.015000000    -4.182000000
C    -1.327000000     2.744000000    -3.319000000
O    -0.845000000     3.910000000    -2.804000000
C    -0.669000000     3.961000000    -1.303000000
H    -0.792000000     2.898000000    -1.045000000
C     0.755000000     4.392000000    -0.995000000
C     0.947000000     5.391000000    -0.106000000
H     0.101000000     5.871000000     0.379000000
C     1.878000000     3.753000000    -1.510000000
H     1.714000000     2.872000000    -2.126000000
C     3.172000000     4.079000000    -1.107000000
O     4.231000000     3.409000000    -1.708000000
C     3.306000000     5.015000000    -0.157000000
H     4.273000000     5.269000000     0.270000000
C     2.230000000     5.634000000     0.376000000
O     2.370000000     6.527000000     1.426000000
C     1.686000000     6.469000000     2.625000000
C     1.834000000     5.326000000     3.332000000
H     2.364000000     4.419000000     3.053000000
C     1.035000000     7.593000000     3.211000000
H     0.913000000     8.458000000     2.564000000
C     0.502000000     7.502000000     4.502000000
H    -0.020000000     8.356000000     4.928000000
C     0.626000000     6.310000000     5.244000000
H     0.146000000     6.155000000     6.207000000
C     1.213000000     5.250000000     4.589000000
O     1.298000000     4.112000000     5.379000000
C     0.662000000     2.908000000     5.199000000
C     1.187000000     1.769000000     5.804000000
H     2.008000000     1.989000000     6.482000000
C     0.631000000     0.535000000     5.685000000
O     1.160000000    -0.558000000     6.313000000
C     0.693000000    -1.852000000     6.214000000
C     1.483000000    -2.770000000     5.531000000
H     2.394000000    -2.506000000     5.001000000
C    -0.451000000    -2.368000000     6.890000000
H    -0.862000000    -1.689000000     7.632000000
C    -0.831000000    -3.696000000     6.809000000
H    -1.701000000    -4.048000000     7.358000000
C    -0.089000000    -4.583000000     6.047000000
H    -0.313000000    -5.646000000     6.069000000
C     1.067000000    -4.141000000     5.451000000
O     1.725000000    -5.063000000     4.644000000
C     1.528000000    -5.010000000     3.267000000
C     2.597000000    -5.345000000     2.441000000
H     3.584000000    -5.642000000     2.786000000
C     2.300000000    -5.281000000     1.127000000
O     3.353000000    -5.526000000     0.304000000
C     3.170000000    -5.734000000    -1.047000000
C     3.845000000    -4.946000000    -1.891000000
H     4.537000000    -4.256000000    -1.415000000
C     2.394000000    -6.805000000    -1.542000000
H     1.774000000    -7.438000000    -0.913000000
C     2.308000000    -7.019000000    -2.911000000
H     1.750000000    -7.860000000    -3.314000000
C     2.986000000    -6.108000000    -3.735000000
H     2.817000000    -6.278000000    -4.795000000
C     3.877000000    -5.176000000    -3.280000000
O     4.338000000    -4.181000000    -4.163000000
C     3.679000000    -2.944000000    -4.388000000
C     4.442000000    -1.897000000    -4.903000000
H     5.511000000    -2.063000000    -5.003000000
C     3.869000000    -0.653000000    -5.218000000
O     4.737000000     0.420000000    -5.414000000
C     4.552000000     1.662000000    -4.966000000
C     4.462000000     2.713000000    -5.860000000
H     4.543000000     2.494000000    -6.922000000
C     4.295000000     3.971000000    -5.367000000
H     4.331000000     4.848000000    -6.008000000
C     4.315000000     4.175000000    -4.000000000
H     4.258000000     5.220000000    -3.704000000
C     4.303000000     3.148000000    -3.087000000
C     4.456000000     1.859000000    -3.582000000
H     4.479000000     0.999000000    -2.918000000
C     3.147000000    -0.846000000    -0.769000000
H     3.976000000    -1.426000000    -1.167000000
C     1.823000000    -1.268000000    -1.038000000
H     1.666000000    -2.098000000    -1.722000000
C     0.762000000    -0.503000000    -0.502000000
H    -0.260000000    -0.833000000    -0.635000000
C     0.935000000     0.560000000     0.352000000
H     0.052000000     1.101000000     0.682000000
C     2.249000000     0.969000000     0.575000000
H     2.386000000     1.884000000     1.145000000
C     3.354000000     0.317000000     0.033000000
C     4.696000000     0.847000000     0.161000000
O     4.859000000     1.704000000     1.004000000
O     5.690000000     0.263000000    -0.334000000
O     5.885000000    -2.574000000     0.458000000
H     6.025000000    -3.081000000    -0.342000000
H     5.623000000    -1.707000000     0.148000000
O     6.810000000     3.142000000    -1.097000000
H     6.395000000     3.059000000    -0.238000000
H     6.151000000     2.823000000    -1.713000000
O     4.075000000     0.800000000     3.520000000
H     4.336000000     1.539000000     4.070000000
H     4.357000000     1.045000000     2.639000000
O     8.070000000    -1.268000000     4.618000000
H     7.152000000    -1.440000000     4.409000000
H     8.560000000    -1.707000000     3.924000000
O     6.471000000     6.105000000    -2.123000000
H     6.612000000     6.618000000    -1.327000000
H     6.551000000     5.195000000    -1.838000000
O     4.681000000     3.012000000     4.871000000
H     5.330000000     2.717000000     5.509000000
H     4.001000000     3.432000000     5.398000000
O     6.321000000     6.247000000     0.995000000
H     7.260000000     6.416000000     1.073000000
H     6.169000000     5.480000000     1.547000000
O     4.266000000    -0.639000000     5.688000000
H     4.100000000    -0.275000000     4.819000000
H     4.880000000    -0.025000000     6.091000000
O     2.810000000    -1.625000000     2.497000000
H     1.942000000    -1.752000000     2.116000000
H     2.839000000    -0.695000000     2.722000000
O     8.633000000    -2.537000000     1.028000000
H     8.725000000    -3.339000000     1.543000000
H     7.688000000    -2.423000000     0.930000000
O     6.931000000    -3.322000000    -2.762000000
H     6.243000000    -3.669000000    -3.331000000
H     6.782000000    -2.377000000    -2.755000000
O     5.471000000     3.945000000     2.184000000
H     5.212000000     3.158000000     1.705000000
H     5.280000000     3.742000000     3.100000000
O     9.796000000     0.686000000     3.020000000
H    10.661000000     0.495000000     2.659000000
H     9.189000000     0.487000000     2.307000000
O     5.158000000    -2.618000000     3.040000000
H     5.600000000    -2.487000000     2.201000000
H     4.234000000    -2.449000000     2.852000000
O    10.846000000     1.270000000     0.167000000
H     9.969000000     1.306000000     0.548000000
H    11.381000000     1.812000000     0.747000000
O     7.073000000    -0.573000000    -2.598000000
H     6.813000000    -0.358000000    -1.703000000
H     7.316000000     0.267000000    -2.986000000
O     8.246000000     0.886000000     0.518000000
H     7.364000000     0.554000000     0.352000000
H     8.334000000     1.637000000    -0.068000000
O     9.142000000     3.326000000     3.785000000
H     9.341000000     2.463000000     3.424000000
H     8.186000000     3.353000000     3.828000000
O     8.306000000     1.978000000    -3.266000000
H     9.187000000     1.608000000    -3.203000000
H     8.299000000     2.691000000    -2.628000000
