215
-1456.37069
C    -0.798000000     0.093000000     4.959000000
H    -1.268000000    -0.885000000     4.884000000
C    -1.396000000     1.244000000     4.404000000
C    -0.765000000     2.484000000     4.614000000
H    -1.192000000     3.440000000     4.321000000
C    -2.417000000     1.162000000     3.293000000
O    -3.523000000     0.236000000     3.698000000
H    -1.968000000     0.731000000     2.386000000
O    -3.134000000     2.445000000     2.993000000
C    -3.196000000     2.739000000     1.639000000
C    -2.290000000     3.628000000     1.148000000
H    -1.538000000     4.020000000     1.827000000
C    -2.351000000     4.045000000    -0.125000000
O    -1.347000000     4.810000000    -0.588000000
C    -3.354000000     3.533000000    -0.956000000
C    -3.347000000     3.882000000    -2.485000000
H    -4.337000000     3.989000000    -2.932000000
C    -2.459000000     2.832000000    -3.254000000
C    -3.077000000     1.659000000    -3.685000000
H    -4.153000000     1.577000000    -3.553000000
H    -2.957000000     4.888000000    -2.648000000
C    -4.289000000     2.645000000    -0.487000000
H    -4.913000000     2.194000000    -1.253000000
C    -4.249000000     2.273000000     0.887000000
C    -5.154000000     1.167000000     1.464000000
H    -6.035000000     1.190000000     0.819000000
H    -5.386000000     1.424000000     2.500000000
C    -4.538000000    -0.241000000     1.531000000
C    -4.744000000    -1.126000000     0.492000000
H    -5.281000000    -0.719000000    -0.360000000
C    -3.785000000    -0.639000000     2.620000000
C    -3.258000000    -1.952000000     2.649000000
H    -2.730000000    -2.279000000     3.540000000
C    -3.410000000    -2.806000000     1.586000000
O    -2.640000000    -3.983000000     1.500000000
C    -1.516000000    -3.879000000     0.582000000
C    -0.276000000    -4.621000000     1.215000000
C     0.687000000    -5.196000000     0.371000000
H     0.648000000    -5.148000000    -0.714000000
C    -0.243000000    -4.767000000     2.628000000
H    -0.926000000    -4.226000000     3.278000000
O    -1.841000000    -4.529000000    -0.695000000
H    -1.314000000    -2.827000000     0.328000000
C    -4.183000000    -2.393000000     0.468000000
C    -4.379000000    -3.260000000    -0.734000000
H    -5.332000000    -3.020000000    -1.209000000
H    -4.463000000    -4.333000000    -0.547000000
C    -3.274000000    -2.991000000    -1.770000000
C    -3.477000000    -1.920000000    -2.742000000
H    -4.432000000    -1.402000000    -2.710000000
C    -2.132000000    -3.751000000    -1.796000000
C    -1.212000000    -3.570000000    -2.804000000
H    -0.248000000    -4.071000000    -2.774000000
C    -1.363000000    -2.576000000    -3.734000000
O    -0.302000000    -2.290000000    -4.532000000
C     0.465000000    -1.220000000    -4.052000000
C     1.980000000    -1.433000000    -4.138000000
C     2.560000000    -2.721000000    -3.889000000
H     1.888000000    -3.570000000    -3.787000000
C     2.908000000    -0.369000000    -4.370000000
H     2.520000000     0.646000000    -4.374000000
O     0.110000000    -0.050000000    -4.776000000
H     0.372000000    -1.223000000    -2.956000000
C    -2.532000000    -1.780000000    -3.727000000
C    -2.764000000    -0.600000000    -4.720000000
H    -3.811000000    -0.553000000    -5.025000000
H    -2.212000000    -0.861000000    -5.625000000
C    -2.257000000     0.705000000    -4.241000000
C    -0.843000000     0.830000000    -4.226000000
C    -0.256000000     1.983000000    -3.749000000
H     0.804000000     2.107000000    -3.544000000
C    -1.032000000     2.977000000    -3.184000000
O    -0.417000000     4.057000000    -2.632000000
C    -0.223000000     4.146000000    -1.166000000
H    -0.310000000     3.074000000    -0.934000000
C     1.133000000     4.603000000    -0.722000000
C     1.319000000     5.307000000     0.471000000
H     0.545000000     5.593000000     1.178000000
C     2.223000000     4.242000000    -1.517000000
H     2.085000000     3.811000000    -2.505000000
C     3.531000000     4.581000000    -1.114000000
O     4.658000000     4.278000000    -1.925000000
C     3.709000000     5.229000000     0.099000000
H     4.701000000     5.564000000     0.387000000
C     2.619000000     5.603000000     0.870000000
O     2.882000000     6.188000000     2.087000000
C     1.984000000     6.113000000     3.162000000
C     1.862000000     4.984000000     3.944000000
H     2.629000000     4.250000000     3.712000000
C     1.026000000     7.117000000     3.290000000
H     1.040000000     7.863000000     2.499000000
C    -0.003000000     7.047000000     4.227000000
H    -0.827000000     7.757000000     4.241000000
C    -0.073000000     5.957000000     4.996000000
H    -0.820000000     5.861000000     5.780000000
C     0.887000000     5.004000000     4.952000000
O     0.869000000     3.914000000     5.822000000
C     0.355000000     2.657000000     5.441000000
C     0.931000000     1.473000000     5.929000000
H     1.872000000     1.551000000     6.468000000
C     0.405000000     0.228000000     5.660000000
O     1.148000000    -0.812000000     6.221000000
C     0.707000000    -2.159000000     6.288000000
C     1.202000000    -3.118000000     5.469000000
H     2.012000000    -2.808000000     4.814000000
C    -0.353000000    -2.448000000     7.190000000
H    -0.688000000    -1.625000000     7.816000000
C    -0.944000000    -3.713000000     7.156000000
H    -1.852000000    -3.942000000     7.707000000
C    -0.456000000    -4.696000000     6.292000000
H    -0.970000000    -5.654000000     6.266000000
C     0.598000000    -4.409000000     5.399000000
O     1.024000000    -5.447000000     4.622000000
C     0.877000000    -5.385000000     3.251000000
C     1.832000000    -5.948000000     2.405000000
H     2.708000000    -6.438000000     2.822000000
C     1.746000000    -5.893000000     1.033000000
O     2.728000000    -6.548000000     0.255000000
C     2.922000000    -6.398000000    -1.043000000
C     3.673000000    -5.339000000    -1.560000000
H     4.195000000    -4.683000000    -0.868000000
C     2.248000000    -7.266000000    -1.883000000
H     1.491000000    -7.955000000    -1.515000000
C     2.383000000    -7.139000000    -3.251000000
H     1.822000000    -7.761000000    -3.944000000
C     3.047000000    -6.052000000    -3.786000000
H     3.108000000    -5.765000000    -4.832000000
C     3.732000000    -5.162000000    -2.940000000
O     4.486000000    -4.071000000    -3.492000000
C     3.946000000    -2.864000000    -3.880000000
C     4.797000000    -1.823000000    -4.165000000
H     5.880000000    -1.877000000    -4.234000000
C     4.295000000    -0.516000000    -4.406000000
O     5.028000000     0.511000000    -4.824000000
C     4.746000000     1.825000000    -4.603000000
C     4.381000000     2.614000000    -5.692000000
H     4.350000000     2.175000000    -6.686000000
C     4.189000000     4.014000000    -5.542000000
H     3.934000000     4.705000000    -6.341000000
C     4.081000000     4.502000000    -4.271000000
H     3.935000000     5.565000000    -4.101000000
C     4.429000000     3.731000000    -3.190000000
C     4.791000000     2.410000000    -3.362000000
H     5.108000000     1.807000000    -2.516000000
C     3.142000000     0.700000000    -0.575000000
H     3.757000000     0.404000000    -1.422000000
C     1.746000000     0.547000000    -0.603000000
H     1.241000000     0.167000000    -1.487000000
C     0.909000000     0.807000000     0.483000000
H    -0.026000000     0.602000000     0.290000000
C     1.490000000     1.324000000     1.618000000
H     0.900000000     1.499000000     2.514000000
C     2.865000000     1.406000000     1.719000000
H     3.278000000     1.811000000     2.638000000
C     3.671000000     1.055000000     0.623000000
C     5.211000000     1.229000000     0.723000000
O     5.679000000     1.909000000     1.653000000
O     5.892000000     0.550000000     0.039000000
O     4.653000000    -2.039000000    -0.255000000
H     5.138000000    -2.521000000    -0.925000000
H     5.135000000    -1.218000000    -0.153000000
O     6.930000000    -3.095000000    -1.583000000
H     7.211000000    -3.385000000    -2.451000000
H     7.738000000    -2.813000000    -1.153000000
O     4.453000000    -1.300000000     3.136000000
H     4.343000000    -1.273000000     2.185000000
H     4.330000000    -2.221000000     3.365000000
O     9.874000000     1.978000000     3.523000000
H     9.539000000     2.855000000     3.712000000
H     9.421000000     1.409000000     4.145000000
O     7.813000000     6.363000000     2.580000000
H     7.030000000     6.810000000     2.900000000
H     7.506000000     5.846000000     1.835000000
O     9.554000000    -1.945000000    -1.138000000
H    10.346000000    -2.225000000    -1.597000000
H     9.872000000    -1.374000000    -0.438000000
O     7.910000000     0.155000000     4.730000000
H     6.977000000     0.279000000     4.905000000
H     7.938000000    -0.295000000     3.886000000
O     8.803000000     2.418000000    -1.930000000
H     8.263000000     1.668000000    -2.179000000
H     8.991000000     2.281000000    -1.002000000
O     7.106000000     4.885000000     0.422000000
H     7.855000000     4.668000000    -0.133000000
H     6.690000000     4.043000000     0.604000000
O     5.215000000     0.306000000     5.088000000
H     5.341000000     1.209000000     4.794000000
H     4.749000000    -0.117000000     4.367000000
O     9.971000000     4.227000000     0.527000000
H    10.739000000     3.943000000     1.023000000
H     9.335000000     3.522000000     0.647000000
O     6.813000000    -3.250000000     1.933000000
H     7.148000000    -4.136000000     1.795000000
H     5.983000000    -3.377000000     2.392000000
O     2.260000000    -2.570000000     0.822000000
H     2.203000000    -1.616000000     0.866000000
H     3.096000000    -2.740000000     0.387000000
O     5.726000000     2.777000000     4.371000000
H     6.496000000     3.347000000     4.371000000
H     5.608000000     2.534000000     3.453000000
O     8.456000000     1.708000000     0.605000000
H     8.499000000     0.861000000     1.047000000
H     7.553000000     1.999000000     0.733000000
O     7.719000000    -0.629000000     1.969000000
H     7.095000000     0.014000000     1.631000000
H     7.327000000    -1.477000000     1.758000000
O    10.660000000    -1.259000000     1.554000000
H    10.639000000    -2.199000000     1.737000000
H     9.780000000    -0.953000000     1.769000000
O     7.316000000     0.035000000    -2.113000000
H     6.616000000     0.106000000    -1.464000000
H     7.937000000    -0.584000000    -1.728000000
O     5.239000000     4.076000000     6.633000000
H     5.145000000     3.550000000     5.838000000
H     6.155000000     3.963000000     6.888000000
