215
-1461.08917
C    -0.129000000    -0.029000000     4.427000000
H    -0.649000000    -0.980000000     4.341000000
C    -0.774000000     1.189000000     4.117000000
C    -0.106000000     2.367000000     4.447000000
H    -0.590000000     3.324000000     4.271000000
C    -2.023000000     1.229000000     3.303000000
O    -2.882000000     0.212000000     3.755000000
H    -1.806000000     0.849000000     2.294000000
O    -2.537000000     2.580000000     3.333000000
C    -2.975000000     3.158000000     2.132000000
C    -2.091000000     4.043000000     1.553000000
H    -1.276000000     4.519000000     2.093000000
C    -2.068000000     4.252000000     0.140000000
O    -1.003000000     4.962000000    -0.447000000
C    -3.134000000     3.744000000    -0.634000000
C    -3.188000000     4.107000000    -2.168000000
H    -4.198000000     3.995000000    -2.568000000
C    -2.378000000     3.143000000    -3.039000000
C    -3.098000000     2.053000000    -3.586000000
H    -4.159000000     1.944000000    -3.378000000
H    -2.885000000     5.154000000    -2.242000000
C    -4.111000000     2.962000000    -0.003000000
H    -4.897000000     2.632000000    -0.677000000
C    -3.994000000     2.593000000     1.365000000
C    -4.942000000     1.580000000     1.935000000
H    -5.939000000     1.690000000     1.503000000
H    -5.085000000     1.804000000     2.994000000
C    -4.427000000     0.140000000     1.777000000
C    -4.913000000    -0.745000000     0.760000000
H    -5.695000000    -0.384000000     0.096000000
C    -3.444000000    -0.443000000     2.699000000
C    -3.054000000    -1.772000000     2.533000000
H    -2.361000000    -2.277000000     3.201000000
C    -3.554000000    -2.582000000     1.486000000
O    -3.021000000    -3.829000000     1.319000000
C    -1.938000000    -4.073000000     0.497000000
C    -0.979000000    -5.049000000     1.071000000
C    -0.102000000    -5.780000000     0.309000000
H    -0.221000000    -5.781000000    -0.771000000
C    -0.906000000    -5.164000000     2.472000000
H    -1.625000000    -4.694000000     3.138000000
O    -2.457000000    -4.476000000    -0.737000000
H    -1.406000000    -3.121000000     0.352000000
C    -4.472000000    -2.037000000     0.606000000
C    -4.837000000    -2.765000000    -0.619000000
H    -5.810000000    -2.389000000    -0.941000000
H    -4.929000000    -3.843000000    -0.466000000
C    -3.759000000    -2.621000000    -1.741000000
C    -3.901000000    -1.555000000    -2.690000000
H    -4.842000000    -1.011000000    -2.718000000
C    -2.691000000    -3.480000000    -1.726000000
C    -1.762000000    -3.274000000    -2.715000000
H    -0.885000000    -3.916000000    -2.747000000
C    -1.838000000    -2.247000000    -3.636000000
O    -0.727000000    -2.057000000    -4.467000000
C     0.110000000    -0.948000000    -4.088000000
C     1.541000000    -1.304000000    -4.020000000
C     1.930000000    -2.572000000    -3.584000000
H     1.118000000    -3.218000000    -3.258000000
C     2.515000000    -0.333000000    -4.375000000
H     2.279000000     0.678000000    -4.697000000
O    -0.164000000     0.177000000    -4.928000000
H    -0.215000000    -0.776000000    -3.052000000
C    -2.923000000    -1.326000000    -3.617000000
C    -3.086000000    -0.250000000    -4.657000000
H    -4.093000000     0.125000000    -4.850000000
H    -2.680000000    -0.684000000    -5.573000000
C    -2.361000000     1.041000000    -4.216000000
C    -0.930000000     1.142000000    -4.405000000
C    -0.259000000     2.264000000    -3.905000000
H     0.818000000     2.393000000    -3.976000000
C    -0.953000000     3.176000000    -3.138000000
O    -0.210000000     4.219000000    -2.566000000
C    -0.052000000     4.097000000    -1.154000000
H    -0.128000000     3.032000000    -0.890000000
C     1.381000000     4.507000000    -0.776000000
C     1.672000000     5.138000000     0.408000000
H     0.883000000     5.511000000     1.056000000
C     2.468000000     4.128000000    -1.568000000
H     2.280000000     3.518000000    -2.448000000
C     3.799000000     4.492000000    -1.253000000
O     4.833000000     4.284000000    -2.158000000
C     4.009000000     5.131000000    -0.085000000
H     5.013000000     5.448000000     0.185000000
C     2.948000000     5.381000000     0.758000000
O     3.203000000     6.138000000     1.888000000
C     2.604000000     6.028000000     3.126000000
C     2.275000000     4.778000000     3.730000000
H     2.485000000     3.834000000     3.234000000
C     2.380000000     7.176000000     3.870000000
H     2.644000000     8.128000000     3.416000000
C     1.986000000     7.126000000     5.176000000
H     1.732000000     8.011000000     5.755000000
C     1.756000000     5.906000000     5.741000000
H     1.438000000     5.921000000     6.780000000
C     1.959000000     4.758000000     5.072000000
O     1.614000000     3.567000000     5.669000000
C     1.091000000     2.312000000     5.156000000
C     1.690000000     1.154000000     5.514000000
H     2.630000000     1.159000000     6.059000000
C     1.067000000    -0.030000000     5.112000000
O     1.558000000    -1.210000000     5.543000000
C     0.809000000    -2.350000000     5.610000000
C     0.988000000    -3.495000000     4.827000000
H     1.639000000    -3.471000000     3.957000000
C    -0.118000000    -2.432000000     6.651000000
H    -0.291000000    -1.541000000     7.248000000
C    -0.916000000    -3.561000000     6.856000000
H    -1.666000000    -3.524000000     7.642000000
C    -0.757000000    -4.678000000     6.060000000
H    -1.273000000    -5.633000000     6.125000000
C     0.218000000    -4.630000000     5.091000000
O     0.481000000    -5.766000000     4.392000000
C     0.204000000    -5.800000000     3.027000000
C     1.043000000    -6.505000000     2.187000000
H     1.816000000    -7.175000000     2.553000000
C     0.919000000    -6.529000000     0.817000000
O     1.754000000    -7.304000000    -0.052000000
C     2.140000000    -6.923000000    -1.294000000
C     2.835000000    -5.696000000    -1.534000000
H     3.210000000    -5.089000000    -0.714000000
C     1.578000000    -7.642000000    -2.380000000
H     0.972000000    -8.542000000    -2.316000000
C     1.822000000    -7.144000000    -3.634000000
H     1.470000000    -7.663000000    -4.522000000
C     2.515000000    -5.995000000    -3.928000000
H     2.757000000    -5.703000000    -4.947000000
C     2.966000000    -5.219000000    -2.835000000
O     3.703000000    -4.096000000    -2.950000000
C     3.311000000    -2.899000000    -3.453000000
C     4.327000000    -1.985000000    -3.806000000
H     5.365000000    -2.189000000    -3.554000000
C     3.889000000    -0.695000000    -4.182000000
O     4.896000000     0.166000000    -4.642000000
C     4.731000000     1.506000000    -4.615000000
C     4.518000000     2.244000000    -5.789000000
H     4.371000000     1.719000000    -6.730000000
C     4.370000000     3.681000000    -5.760000000
H     4.103000000     4.197000000    -6.678000000
C     4.506000000     4.340000000    -4.533000000
H     4.339000000     5.413000000    -4.492000000
C     4.711000000     3.622000000    -3.396000000
C     4.731000000     2.222000000    -3.419000000
H     4.863000000     1.648000000    -2.506000000
C     3.061000000     0.036000000    -0.609000000
H     3.647000000    -0.491000000    -1.357000000
C     1.668000000    -0.003000000    -0.605000000
H     1.078000000    -0.553000000    -1.333000000
C     0.947000000     0.816000000     0.278000000
H    -0.082000000     0.664000000     0.375000000
C     1.629000000     1.692000000     1.076000000
H     0.966000000     2.185000000     1.783000000
C     3.023000000     1.818000000     1.032000000
H     3.561000000     2.504000000     1.682000000
C     3.730000000     0.944000000     0.212000000
C     5.229000000     0.939000000     0.302000000
O     5.856000000     1.775000000     0.897000000
O     5.820000000     0.266000000    -0.548000000
O     5.349000000    -2.877000000    -0.699000000
H     6.154000000    -3.201000000    -1.101000000
H     5.337000000    -1.943000000    -0.908000000
O     5.315000000     3.594000000     4.808000000
H     5.454000000     4.541000000     4.802000000
H     5.461000000     3.337000000     5.719000000
O     8.118000000     2.523000000    -0.351000000
H     8.706000000     1.769000000    -0.390000000
H     7.329000000     2.189000000     0.077000000
O     5.377000000     0.804000000     3.521000000
H     5.222000000     1.632000000     3.976000000
H     5.698000000     1.062000000     2.657000000
O     8.048000000    -4.056000000     0.892000000
H     8.100000000    -3.140000000     0.620000000
H     8.173000000    -4.032000000     1.840000000
O     6.931000000    -1.519000000     3.645000000
H     6.444000000    -2.101000000     3.062000000
H     6.493000000    -0.672000000     3.559000000
O     8.023000000     5.017000000    -1.646000000
H     7.966000000     4.165000000    -1.213000000
H     8.133000000     5.643000000    -0.930000000
O     4.879000000    -2.455000000     5.710000000
H     4.578000000    -1.696000000     6.210000000
H     5.329000000    -2.081000000     4.953000000
O     2.883000000    -0.908000000     2.449000000
H     2.531000000    -0.260000000     1.839000000
H     2.919000000    -0.451000000     3.289000000
O     7.947000000    -1.377000000    -0.085000000
H     7.172000000    -0.817000000    -0.041000000
H     8.657000000    -0.786000000    -0.337000000
O     7.231000000     3.233000000     2.796000000
H     6.933000000     2.906000000     1.948000000
H     6.447000000     3.226000000     3.345000000
O    10.826000000    -1.407000000     2.424000000
H    10.990000000    -2.297000000     2.111000000
H    10.658000000    -0.901000000     1.630000000
O     9.129000000    -0.122000000     4.225000000
H     8.376000000    -0.699000000     4.097000000
H     9.847000000    -0.562000000     3.770000000
O     4.900000000    -2.569000000     1.996000000
H     4.859000000    -2.896000000     1.097000000
H     4.120000000    -2.021000000     2.087000000
O     9.577000000     4.024000000     1.978000000
H     9.887000000     3.269000000     1.477000000
H     8.688000000     3.789000000     2.241000000
O     6.992000000    -0.256000000    -2.820000000
H     6.404000000    -0.240000000    -3.575000000
H     6.435000000    -0.025000000    -2.077000000
O     8.665000000     2.456000000     5.045000000
H     8.260000000     2.708000000     4.215000000
H     8.810000000     1.513000000     4.964000000
O    10.164000000     0.143000000    -0.176000000
H    10.706000000     0.921000000    -0.049000000
H    10.429000000    -0.196000000    -1.032000000
O     8.205000000     2.058000000    -3.348000000
H     8.006000000     1.151000000    -3.116000000
H     7.785000000     2.578000000    -2.663000000
