215
-1475.56702
C    -1.178000000     0.730000000     4.972000000
H    -1.238000000    -0.276000000     4.563000000
C    -1.902000000     1.784000000     4.321000000
C    -1.561000000     3.130000000     4.671000000
H    -1.879000000     3.932000000     4.011000000
C    -2.906000000     1.431000000     3.214000000
O    -3.832000000     0.358000000     3.514000000
H    -2.255000000     1.082000000     2.399000000
O    -3.650000000     2.555000000     2.796000000
C    -3.600000000     2.769000000     1.423000000
C    -2.574000000     3.517000000     0.899000000
H    -1.888000000     4.037000000     1.563000000
C    -2.529000000     3.673000000    -0.465000000
O    -1.481000000     4.419000000    -0.962000000
C    -3.536000000     3.030000000    -1.355000000
C    -3.496000000     3.344000000    -2.832000000
H    -4.461000000     3.185000000    -3.318000000
C    -2.490000000     2.473000000    -3.578000000
C    -2.893000000     1.173000000    -4.036000000
H    -3.944000000     0.896000000    -4.073000000
H    -3.162000000     4.380000000    -2.917000000
C    -4.525000000     2.245000000    -0.721000000
H    -5.162000000     1.624000000    -1.345000000
C    -4.506000000     2.100000000     0.668000000
C    -5.496000000     1.059000000     1.256000000
H    -6.415000000     0.931000000     0.679000000
H    -5.904000000     1.435000000     2.196000000
C    -4.809000000    -0.289000000     1.383000000
C    -4.935000000    -1.297000000     0.393000000
H    -5.511000000    -1.088000000    -0.505000000
C    -4.055000000    -0.539000000     2.516000000
C    -3.216000000    -1.702000000     2.512000000
H    -2.442000000    -1.790000000     3.269000000
C    -3.394000000    -2.675000000     1.513000000
O    -2.587000000    -3.735000000     1.574000000
C    -1.387000000    -3.733000000     0.770000000
C    -0.143000000    -4.234000000     1.615000000
C     0.913000000    -4.972000000     1.008000000
H     0.875000000    -5.160000000    -0.062000000
C    -0.064000000    -4.102000000     3.030000000
H    -0.767000000    -3.457000000     3.550000000
O    -1.616000000    -4.512000000    -0.376000000
H    -1.091000000    -2.740000000     0.402000000
C    -4.277000000    -2.502000000     0.448000000
C    -4.337000000    -3.417000000    -0.766000000
H    -5.305000000    -3.272000000    -1.249000000
H    -4.509000000    -4.440000000    -0.424000000
C    -3.206000000    -3.235000000    -1.746000000
C    -3.323000000    -2.520000000    -2.955000000
H    -4.281000000    -2.088000000    -3.234000000
C    -1.929000000    -3.806000000    -1.520000000
C    -0.975000000    -3.665000000    -2.444000000
H     0.028000000    -4.066000000    -2.322000000
C    -1.058000000    -2.876000000    -3.573000000
O     0.070000000    -2.554000000    -4.364000000
C     0.821000000    -1.388000000    -4.045000000
C     2.312000000    -1.564000000    -4.098000000
C     2.816000000    -2.790000000    -3.674000000
H     2.130000000    -3.470000000    -3.175000000
C     3.252000000    -0.485000000    -4.341000000
H     2.788000000     0.456000000    -4.628000000
O     0.375000000    -0.321000000    -4.861000000
H     0.689000000    -1.076000000    -2.999000000
C    -2.240000000    -2.195000000    -3.781000000
C    -2.403000000    -1.147000000    -4.919000000
H    -3.452000000    -1.205000000    -5.218000000
H    -1.839000000    -1.489000000    -5.789000000
C    -1.980000000     0.218000000    -4.448000000
C    -0.591000000     0.580000000    -4.448000000
C    -0.193000000     1.853000000    -4.063000000
H     0.878000000     2.042000000    -4.049000000
C    -1.136000000     2.842000000    -3.633000000
O    -0.589000000     3.959000000    -3.002000000
C    -0.363000000     3.750000000    -1.600000000
H    -0.330000000     2.678000000    -1.352000000
C     0.971000000     4.357000000    -1.177000000
C     1.215000000     4.680000000     0.177000000
H     0.376000000     4.848000000     0.848000000
C     2.062000000     4.058000000    -1.999000000
H     1.915000000     3.508000000    -2.926000000
C     3.332000000     4.489000000    -1.627000000
O     4.474000000     4.422000000    -2.423000000
C     3.570000000     4.868000000    -0.311000000
H     4.582000000     4.983000000     0.067000000
C     2.511000000     4.896000000     0.626000000
O     2.762000000     5.195000000     1.966000000
C     1.783000000     5.693000000     2.846000000
C     1.183000000     4.818000000     3.769000000
H     1.324000000     3.740000000     3.742000000
C     1.504000000     7.067000000     2.767000000
H     1.911000000     7.684000000     1.970000000
C     0.838000000     7.578000000     3.877000000
H     0.805000000     8.655000000     4.015000000
C     0.338000000     6.760000000     4.894000000
H    -0.130000000     7.301000000     5.712000000
C     0.436000000     5.436000000     4.833000000
O    -0.116000000     4.642000000     5.856000000
C    -0.504000000     3.319000000     5.557000000
C     0.298000000     2.278000000     6.150000000
H     1.161000000     2.515000000     6.767000000
C    -0.082000000     0.931000000     5.840000000
O     0.592000000    -0.121000000     6.317000000
C     0.117000000    -1.440000000     6.551000000
C     0.848000000    -2.406000000     5.901000000
H     1.724000000    -2.116000000     5.326000000
C    -1.117000000    -1.728000000     7.187000000
H    -1.765000000    -0.914000000     7.503000000
C    -1.556000000    -3.050000000     7.228000000
H    -2.421000000    -3.275000000     7.847000000
C    -0.775000000    -4.046000000     6.567000000
H    -1.134000000    -5.071000000     6.507000000
C     0.397000000    -3.691000000     5.818000000
O     1.024000000    -4.597000000     5.077000000
C     0.997000000    -4.657000000     3.748000000
C     2.005000000    -5.305000000     3.076000000
H     2.739000000    -5.867000000     3.648000000
C     2.011000000    -5.460000000     1.708000000
O     3.092000000    -6.101000000     1.115000000
C     3.241000000    -6.153000000    -0.274000000
C     3.924000000    -5.141000000    -0.956000000
H     4.360000000    -4.343000000    -0.361000000
C     2.775000000    -7.274000000    -0.982000000
H     2.103000000    -7.946000000    -0.455000000
C     3.015000000    -7.305000000    -2.398000000
H     2.737000000    -8.151000000    -3.021000000
C     3.613000000    -6.220000000    -3.069000000
H     3.711000000    -6.249000000    -4.151000000
C     4.112000000    -5.148000000    -2.332000000
O     4.780000000    -4.103000000    -2.971000000
C     4.187000000    -3.019000000    -3.518000000
C     5.102000000    -2.061000000    -3.955000000
H     6.160000000    -2.292000000    -3.866000000
C     4.634000000    -0.793000000    -4.252000000
O     5.516000000     0.207000000    -4.510000000
C     5.106000000     1.532000000    -4.600000000
C     4.743000000     2.064000000    -5.857000000
H     4.691000000     1.465000000    -6.763000000
C     4.193000000     3.341000000    -5.995000000
H     3.864000000     3.577000000    -7.004000000
C     4.260000000     4.215000000    -4.870000000
H     3.873000000     5.215000000    -5.047000000
C     4.566000000     3.716000000    -3.614000000
C     4.920000000     2.339000000    -3.472000000
H     5.316000000     1.902000000    -2.559000000
C     2.264000000     0.740000000    -0.366000000
H     2.946000000     0.417000000    -1.149000000
C     0.916000000     0.547000000    -0.502000000
H     0.423000000     0.206000000    -1.409000000
C     0.086000000     0.868000000     0.558000000
H    -1.017000000     0.905000000     0.450000000
C     0.637000000     1.400000000     1.785000000
H     0.001000000     1.597000000     2.645000000
C     1.998000000     1.612000000     1.894000000
H     2.375000000     1.905000000     2.871000000
C     2.797000000     1.272000000     0.814000000
C     4.298000000     1.354000000     1.000000000
O     4.917000000     2.090000000     1.758000000
O     4.987000000     0.711000000     0.219000000
O     4.437000000    -1.869000000    -0.212000000
H     4.916000000    -2.129000000    -0.999000000
H     4.645000000    -0.942000000    -0.100000000
O     4.401000000    -2.013000000     5.650000000
H     4.320000000    -1.889000000     4.704000000
H     5.341000000    -2.105000000     5.800000000
O     8.552000000    -1.683000000    -0.526000000
H     8.504000000    -1.387000000     0.383000000
H     9.297000000    -2.284000000    -0.544000000
O     4.448000000    -1.463000000     2.790000000
H     3.678000000    -1.775000000     2.316000000
H     4.313000000    -0.519000000     2.871000000
O     7.080000000    -2.203000000     2.022000000
H     6.152000000    -2.090000000     2.227000000
H     7.086000000    -2.642000000     1.171000000
O     7.973000000     2.060000000    -3.199000000
H     7.363000000     1.808000000    -2.505000000
H     8.831000000     2.062000000    -2.774000000
O     6.583000000     1.060000000     6.083000000
H     5.848000000     0.713000000     5.578000000
H     6.193000000     1.729000000     6.646000000
O     6.837000000     3.062000000     0.184000000
H     7.233000000     2.342000000    -0.306000000
H     6.147000000     2.649000000     0.702000000
O     4.452000000     1.488000000     4.525000000
H     4.781000000     1.698000000     3.651000000
H     3.652000000     2.005000000     4.611000000
O     7.198000000     5.447000000     1.661000000
H     7.799000000     5.068000000     2.302000000
H     7.039000000     4.740000000     1.035000000
O     7.791000000    -0.552000000     3.950000000
H     7.363000000    -0.737000000     3.114000000
H     7.511000000    -1.264000000     4.525000000
O     2.240000000    -1.935000000     1.234000000
H     1.592000000    -1.417000000     0.757000000
H     2.984000000    -1.999000000     0.635000000
O     8.714000000     4.561000000     3.887000000
H     9.594000000     4.817000000     4.161000000
H     8.719000000     3.604000000     3.927000000
O     5.148000000     4.218000000     3.256000000
H     5.500000000     4.981000000     2.798000000
H     5.124000000     3.529000000     2.591000000
O     9.601000000     3.065000000     0.827000000
H     8.839000000     3.545000000     0.503000000
H     9.314000000     2.696000000     1.663000000
O     7.979000000     1.905000000     2.837000000
H     7.352000000     1.904000000     2.114000000
H     7.654000000     1.234000000     3.437000000
O    10.311000000    -1.560000000     2.043000000
H    10.783000000    -1.913000000     2.797000000
H     9.391000000    -1.576000000     2.308000000
O     7.356000000     0.801000000    -0.962000000
H     6.528000000     0.520000000    -0.572000000
H     7.835000000    -0.012000000    -1.121000000
O     4.859000000     5.323000000     5.850000000
H     4.660000000     4.965000000     4.985000000
H     5.812000000     5.268000000     5.919000000
