215
-1459.91208
C    -1.385000000     0.820000000     5.486000000
H    -1.794000000    -0.184000000     5.418000000
C    -1.738000000     1.816000000     4.564000000
C    -1.205000000     3.136000000     4.862000000
H    -1.399000000     3.921000000     4.136000000
C    -2.654000000     1.534000000     3.353000000
O    -3.689000000     0.512000000     3.589000000
H    -1.943000000     1.158000000     2.604000000
O    -3.258000000     2.751000000     2.897000000
C    -3.362000000     2.886000000     1.517000000
C    -2.367000000     3.724000000     0.934000000
H    -1.623000000     4.190000000     1.575000000
C    -2.326000000     3.658000000    -0.479000000
O    -1.262000000     4.260000000    -1.044000000
C    -3.252000000     3.021000000    -1.289000000
C    -3.233000000     3.245000000    -2.800000000
H    -4.255000000     3.247000000    -3.185000000
C    -2.356000000     2.303000000    -3.553000000
C    -2.936000000     1.159000000    -4.133000000
H    -4.001000000     1.013000000    -3.971000000
H    -2.940000000     4.272000000    -3.029000000
C    -4.324000000     2.287000000    -0.653000000
H    -4.950000000     1.694000000    -1.314000000
C    -4.345000000     2.168000000     0.758000000
C    -5.382000000     1.226000000     1.418000000
H    -6.312000000     1.357000000     0.860000000
H    -5.580000000     1.689000000     2.387000000
C    -4.848000000    -0.166000000     1.566000000
C    -5.038000000    -1.116000000     0.516000000
H    -5.681000000    -0.884000000    -0.329000000
C    -3.953000000    -0.446000000     2.633000000
C    -3.301000000    -1.637000000     2.668000000
H    -2.656000000    -1.823000000     3.523000000
C    -3.526000000    -2.553000000     1.655000000
O    -2.688000000    -3.640000000     1.718000000
C    -1.544000000    -3.601000000     0.813000000
C    -0.226000000    -4.136000000     1.423000000
C     0.707000000    -4.890000000     0.755000000
H     0.552000000    -5.132000000    -0.293000000
C     0.123000000    -3.649000000     2.645000000
H    -0.479000000    -2.921000000     3.183000000
O    -1.727000000    -4.304000000    -0.392000000
H    -1.318000000    -2.560000000     0.539000000
C    -4.358000000    -2.304000000     0.540000000
C    -4.364000000    -3.254000000    -0.726000000
H    -5.381000000    -3.249000000    -1.122000000
H    -4.269000000    -4.308000000    -0.454000000
C    -3.238000000    -3.024000000    -1.778000000
C    -3.472000000    -2.244000000    -2.877000000
H    -4.464000000    -1.844000000    -3.073000000
C    -1.995000000    -3.642000000    -1.566000000
C    -1.048000000    -3.564000000    -2.539000000
H    -0.093000000    -4.068000000    -2.415000000
C    -1.227000000    -2.757000000    -3.635000000
O    -0.160000000    -2.594000000    -4.563000000
C     0.609000000    -1.353000000    -4.476000000
C     2.062000000    -1.722000000    -4.519000000
C     2.589000000    -2.946000000    -3.921000000
H     1.949000000    -3.749000000    -3.566000000
C     2.918000000    -0.739000000    -4.956000000
H     2.532000000     0.233000000    -5.252000000
O     0.203000000    -0.345000000    -5.442000000
H     0.496000000    -0.995000000    -3.442000000
C    -2.423000000    -2.097000000    -3.845000000
C    -2.595000000    -1.174000000    -5.063000000
H    -3.679000000    -1.116000000    -5.189000000
H    -2.113000000    -1.619000000    -5.936000000
C    -2.066000000     0.202000000    -4.694000000
C    -0.698000000     0.517000000    -4.945000000
C    -0.172000000     1.666000000    -4.371000000
H     0.903000000     1.780000000    -4.485000000
C    -0.989000000     2.533000000    -3.676000000
O    -0.248000000     3.539000000    -3.092000000
C    -0.253000000     3.413000000    -1.597000000
H    -0.359000000     2.377000000    -1.242000000
C     1.103000000     3.859000000    -0.971000000
C     1.290000000     4.373000000     0.347000000
H     0.430000000     4.564000000     0.984000000
C     2.249000000     3.639000000    -1.732000000
H     2.120000000     3.116000000    -2.676000000
C     3.562000000     3.907000000    -1.281000000
O     4.667000000     3.693000000    -2.157000000
C     3.681000000     4.362000000    -0.007000000
H     4.701000000     4.505000000     0.341000000
C     2.580000000     4.588000000     0.857000000
O     2.914000000     4.880000000     2.164000000
C     2.067000000     5.561000000     3.022000000
C     1.340000000     4.745000000     3.939000000
H     1.397000000     3.660000000     3.910000000
C     2.241000000     6.911000000     3.235000000
H     2.676000000     7.516000000     2.443000000
C     1.569000000     7.502000000     4.336000000
H     1.602000000     8.589000000     4.354000000
C     0.831000000     6.724000000     5.179000000
H     0.482000000     7.251000000     6.063000000
C     0.704000000     5.333000000     5.014000000
O     0.206000000     4.633000000     6.097000000
C    -0.404000000     3.436000000     6.046000000
C    -0.037000000     2.376000000     6.858000000
H     0.578000000     2.561000000     7.735000000
C    -0.451000000     1.082000000     6.532000000
O    -0.082000000     0.078000000     7.388000000
C    -0.115000000    -1.271000000     6.996000000
C     0.879000000    -1.787000000     6.140000000
H     1.664000000    -1.106000000     5.822000000
C    -1.185000000    -2.018000000     7.412000000
H    -1.824000000    -1.569000000     8.168000000
C    -1.368000000    -3.292000000     6.883000000
H    -2.123000000    -3.924000000     7.344000000
C    -0.473000000    -3.838000000     5.966000000
H    -0.507000000    -4.821000000     5.502000000
C     0.660000000    -3.050000000     5.547000000
O     1.606000000    -3.522000000     4.586000000
C     1.255000000    -4.032000000     3.339000000
C     2.197000000    -4.841000000     2.643000000
H     3.141000000    -5.220000000     3.027000000
C     1.927000000    -5.226000000     1.411000000
O     2.848000000    -6.032000000     0.836000000
C     2.951000000    -6.127000000    -0.526000000
C     3.628000000    -5.122000000    -1.166000000
H     4.207000000    -4.459000000    -0.528000000
C     2.498000000    -7.189000000    -1.276000000
H     1.916000000    -7.914000000    -0.712000000
C     2.664000000    -7.257000000    -2.646000000
H     2.384000000    -8.190000000    -3.130000000
C     3.292000000    -6.259000000    -3.300000000
H     3.424000000    -6.133000000    -4.371000000
C     3.837000000    -5.218000000    -2.580000000
O     4.493000000    -4.150000000    -3.197000000
C     3.920000000    -3.085000000    -3.843000000
C     4.784000000    -2.182000000    -4.403000000
H     5.856000000    -2.344000000    -4.482000000
C     4.293000000    -0.991000000    -4.918000000
O     5.183000000    -0.002000000    -5.283000000
C     4.872000000     1.350000000    -5.060000000
C     4.216000000     2.114000000    -6.017000000
H     4.054000000     1.704000000    -7.010000000
C     3.737000000     3.401000000    -5.643000000
H     3.281000000     4.031000000    -6.403000000
C     3.947000000     3.926000000    -4.389000000
H     3.864000000     4.970000000    -4.099000000
C     4.595000000     3.190000000    -3.471000000
C     4.967000000     1.858000000    -3.766000000
H     5.391000000     1.247000000    -2.973000000
C     1.620000000     0.271000000    -0.304000000
H     2.333000000     0.542000000    -1.078000000
C     0.318000000     0.029000000    -0.609000000
H     0.035000000     0.216000000    -1.641000000
C    -0.609000000    -0.296000000     0.320000000
H    -1.704000000    -0.435000000     0.035000000
C    -0.213000000    -0.414000000     1.689000000
H    -0.935000000    -0.522000000     2.493000000
C     1.143000000    -0.315000000     1.959000000
H     1.545000000    -0.571000000     2.936000000
C     2.092000000    -0.057000000     0.985000000
C     3.553000000     0.218000000     1.238000000
O     4.078000000    -0.081000000     2.284000000
O     4.307000000     0.688000000     0.392000000
O     7.315000000    -3.096000000    -1.105000000
H     7.259000000    -3.603000000    -1.915000000
H     6.625000000    -2.437000000    -1.187000000
O     4.289000000    -4.025000000     5.769000000
H     4.322000000    -3.663000000     4.883000000
H     3.944000000    -3.312000000     6.306000000
O     4.968000000    -2.178000000     3.620000000
H     5.317000000    -2.745000000     2.932000000
H     4.598000000    -1.431000000     3.150000000
O     9.656000000    -0.533000000    -0.937000000
H     9.833000000    -1.162000000    -0.236000000
H     9.319000000     0.240000000    -0.484000000
O     3.410000000     0.474000000     5.074000000
H     3.684000000     0.225000000     4.191000000
H     3.371000000     1.430000000     5.052000000
O     7.628000000     0.128000000    -2.624000000
H     6.862000000    -0.197000000    -2.151000000
H     8.371000000    -0.294000000    -2.195000000
O     6.267000000     2.225000000    -0.339000000
H     5.681000000     2.832000000    -0.791000000
H     5.683000000     1.591000000     0.076000000
O     4.068000000     3.280000000     5.059000000
H     4.487000000     3.063000000     4.226000000
H     3.956000000     4.231000000     5.030000000
O     4.929000000     2.524000000     2.810000000
H     4.332000000     1.967000000     2.311000000
H     5.712000000     1.987000000     2.933000000
O     7.901000000    -1.938000000     3.434000000
H     7.391000000    -2.705000000     3.172000000
H     7.743000000    -1.855000000     4.375000000
O     6.610000000    -3.682000000     1.841000000
H     6.746000000    -4.549000000     2.221000000
H     7.175000000    -3.668000000     1.068000000
O     8.964000000     1.645000000     2.970000000
H     9.403000000     1.397000000     3.784000000
H     8.078000000     1.295000000     3.060000000
O     6.284000000     4.945000000     3.960000000
H     7.172000000     5.181000000     3.691000000
H     6.047000000     4.215000000     3.389000000
O     8.892000000     2.054000000     0.171000000
H     7.967000000     2.007000000    -0.072000000
H     8.901000000     1.886000000     1.113000000
O     5.163000000     2.025000000     7.088000000
H     4.555000000     1.400000000     7.483000000
H     4.674000000     2.405000000     6.358000000
O     6.674000000     0.412000000     2.794000000
H     5.820000000     0.202000000     2.416000000
H     7.114000000    -0.434000000     2.876000000
O     7.320000000     5.032000000     0.514000000
H     7.229000000     4.216000000     0.021000000
H     7.924000000     4.816000000     1.224000000
O     5.354000000    -0.996000000    -1.410000000
H     5.261000000    -0.254000000    -0.813000000
H     4.764000000    -1.662000000    -1.058000000
O     4.381000000    -1.404000000     6.689000000
H     5.187000000    -1.570000000     6.200000000
H     3.934000000    -0.722000000     6.188000000
