215
-1449.33458
C     4.821000000    -0.077000000    -1.456000000
H     4.561000000    -1.088000000    -1.762000000
C     4.788000000     0.262000000    -0.129000000
C     5.081000000     1.561000000     0.258000000
H     4.979000000     1.802000000     1.313000000
C     4.068000000    -0.752000000     0.824000000
O     4.458000000    -2.123000000     0.622000000
H     2.996000000    -0.584000000     0.644000000
O     4.325000000    -0.440000000     2.225000000
C     3.306000000    -0.449000000     3.162000000
C     2.724000000     0.775000000     3.452000000
H     3.173000000     1.663000000     3.015000000
C     1.571000000     0.814000000     4.185000000
O     1.051000000     2.053000000     4.398000000
C     1.026000000    -0.385000000     4.684000000
C    -0.277000000    -0.382000000     5.605000000
H    -0.383000000    -1.317000000     6.159000000
C    -1.491000000    -0.263000000     4.701000000
C    -2.017000000    -1.509000000     4.336000000
H    -1.547000000    -2.404000000     4.737000000
H    -0.224000000     0.378000000     6.387000000
C     1.602000000    -1.594000000     4.241000000
H     1.202000000    -2.553000000     4.560000000
C     2.738000000    -1.659000000     3.563000000
C     3.300000000    -3.015000000     3.112000000
H     3.062000000    -3.839000000     3.787000000
H     4.387000000    -3.003000000     3.009000000
C     2.828000000    -3.526000000     1.809000000
C     1.691000000    -4.357000000     1.796000000
H     1.239000000    -4.739000000     2.708000000
C     3.401000000    -3.061000000     0.615000000
C     2.828000000    -3.390000000    -0.614000000
H     3.304000000    -3.247000000    -1.580000000
C     1.689000000    -4.182000000    -0.618000000
O     1.076000000    -4.499000000    -1.843000000
C    -0.060000000    -3.813000000    -2.207000000
C    -0.021000000    -3.327000000    -3.653000000
C    -1.181000000    -3.051000000    -4.344000000
H    -2.162000000    -3.320000000    -3.958000000
C     1.206000000    -3.128000000    -4.338000000
H     2.094000000    -3.391000000    -3.769000000
O    -1.257000000    -4.526000000    -1.917000000
H    -0.143000000    -2.901000000    -1.598000000
C     1.121000000    -4.641000000     0.581000000
C    -0.112000000    -5.542000000     0.501000000
H    -0.199000000    -6.154000000     1.401000000
H    -0.041000000    -6.280000000    -0.301000000
C    -1.341000000    -4.670000000     0.532000000
C    -1.896000000    -4.305000000     1.776000000
H    -1.540000000    -4.588000000     2.764000000
C    -1.804000000    -4.192000000    -0.705000000
C    -2.886000000    -3.342000000    -0.669000000
H    -3.364000000    -2.980000000    -1.576000000
C    -3.572000000    -3.019000000     0.506000000
O    -4.484000000    -2.037000000     0.429000000
C    -4.092000000    -0.652000000     0.701000000
C    -4.621000000     0.305000000    -0.349000000
C    -4.857000000    -0.093000000    -1.674000000
H    -4.611000000    -1.112000000    -1.963000000
C    -4.653000000     1.692000000    -0.072000000
H    -4.420000000     1.967000000     0.953000000
O    -4.561000000    -0.312000000     2.021000000
H    -2.993000000    -0.701000000     0.700000000
C    -3.022000000    -3.420000000     1.774000000
C    -3.639000000    -2.952000000     3.112000000
H    -3.409000000    -3.644000000     3.925000000
H    -4.719000000    -3.030000000     2.970000000
C    -3.067000000    -1.554000000     3.477000000
C    -3.703000000    -0.339000000     3.063000000
C    -3.101000000     0.944000000     3.369000000
H    -3.511000000     1.833000000     2.896000000
C    -1.965000000     0.952000000     4.165000000
O    -1.255000000     2.135000000     4.292000000
C    -0.047000000     2.333000000     3.579000000
H    -0.021000000     1.609000000     2.751000000
C     0.051000000     3.773000000     2.985000000
C     1.234000000     4.383000000     2.692000000
H     2.122000000     3.784000000     2.875000000
C    -1.117000000     4.397000000     2.678000000
H    -2.106000000     3.972000000     2.829000000
C    -1.060000000     5.726000000     2.204000000
O    -2.218000000     6.423000000     1.773000000
C     0.115000000     6.429000000     2.205000000
H     0.097000000     7.471000000     1.897000000
C     1.295000000     5.689000000     2.230000000
O     2.525000000     6.339000000     2.197000000
C     3.772000000     5.735000000     2.009000000
C     4.072000000     4.951000000     0.900000000
H     3.291000000     4.721000000     0.181000000
C     4.691000000     5.952000000     2.908000000
H     4.469000000     6.640000000     3.719000000
C     6.009000000     5.509000000     2.809000000
H     6.765000000     5.656000000     3.576000000
C     6.384000000     4.851000000     1.623000000
H     7.429000000     4.621000000     1.433000000
C     5.383000000     4.482000000     0.692000000
O     5.665000000     3.849000000    -0.485000000
C     5.578000000     2.497000000    -0.692000000
C     5.663000000     2.141000000    -2.002000000
H     5.849000000     2.857000000    -2.798000000
C     5.266000000     0.857000000    -2.404000000
O     5.133000000     0.598000000    -3.734000000
C     4.946000000    -0.685000000    -4.244000000
C     3.781000000    -1.052000000    -4.936000000
H     2.924000000    -0.415000000    -5.141000000
C     6.038000000    -1.575000000    -4.116000000
H     6.967000000    -1.316000000    -3.615000000
C     5.834000000    -2.916000000    -4.551000000
H     6.614000000    -3.656000000    -4.393000000
C     4.671000000    -3.279000000    -5.200000000
H     4.478000000    -4.251000000    -5.649000000
C     3.705000000    -2.316000000    -5.442000000
O     2.589000000    -2.667000000    -6.171000000
C     1.336000000    -2.704000000    -5.633000000
C     0.149000000    -2.433000000    -6.269000000
H     0.145000000    -2.130000000    -7.313000000
C    -1.086000000    -2.594000000    -5.619000000
O    -2.234000000    -2.367000000    -6.360000000
C    -3.575000000    -2.104000000    -5.936000000
C    -3.810000000    -0.867000000    -5.362000000
H    -3.002000000    -0.149000000    -5.249000000
C    -4.603000000    -2.984000000    -6.150000000
H    -4.380000000    -3.947000000    -6.601000000
C    -5.833000000    -2.781000000    -5.550000000
H    -6.619000000    -3.509000000    -5.737000000
C    -6.042000000    -1.658000000    -4.722000000
H    -6.979000000    -1.441000000    -4.215000000
C    -5.058000000    -0.669000000    -4.674000000
O    -5.368000000     0.546000000    -4.060000000
C    -5.160000000     0.803000000    -2.680000000
C    -5.347000000     2.124000000    -2.334000000
H    -5.633000000     2.872000000    -3.069000000
C    -5.078000000     2.586000000    -1.049000000
O    -5.409000000     3.943000000    -0.806000000
C    -5.073000000     4.543000000     0.364000000
C    -5.984000000     4.573000000     1.405000000
H    -6.861000000     3.947000000     1.265000000
C    -5.605000000     5.166000000     2.653000000
H    -6.302000000     5.082000000     3.484000000
C    -4.411000000     5.924000000     2.719000000
H    -4.079000000     6.314000000     3.678000000
C    -3.477000000     5.928000000     1.657000000
C    -3.804000000     5.129000000     0.526000000
H    -3.084000000     5.015000000    -0.279000000
C     0.415000000     0.307000000    -2.422000000
H    -0.005000000    -0.155000000    -3.312000000
C    -0.017000000    -0.147000000    -1.156000000
H    -0.842000000    -0.854000000    -1.175000000
C     0.464000000     0.385000000     0.017000000
H     0.034000000    -0.009000000     0.950000000
C     1.419000000     1.364000000    -0.076000000
H     1.911000000     1.843000000     0.766000000
C     1.897000000     1.893000000    -1.311000000
H     2.671000000     2.656000000    -1.296000000
C     1.342000000     1.377000000    -2.481000000
C     1.681000000     1.829000000    -3.834000000
O     2.283000000     2.857000000    -4.019000000
O     1.243000000     1.291000000    -4.927000000
O     2.658000000     1.322000000   -10.113000000
H     2.352000000     2.015000000    -9.529000000
H     2.468000000     0.511000000    -9.641000000
O    -1.436000000     4.677000000    -2.851000000
H    -2.107000000     5.358000000    -2.810000000
H    -1.687000000     4.053000000    -2.170000000
O     4.547000000     3.009000000    -5.227000000
H     5.016000000     2.325000000    -4.748000000
H     3.709000000     3.089000000    -4.771000000
O     0.785000000     7.003000000    -0.788000000
H     0.274000000     7.427000000    -1.478000000
H     1.035000000     6.158000000    -1.161000000
O    -4.200000000     2.561000000    -5.549000000
H    -4.366000000     2.112000000    -4.720000000
H    -3.267000000     2.774000000    -5.523000000
O    -0.323000000    -0.192000000    -8.853000000
H    -1.135000000    -0.569000000    -8.512000000
H    -0.035000000     0.414000000    -8.170000000
O    -1.345000000     2.797000000    -0.486000000
H    -0.839000000     2.031000000    -0.214000000
H    -0.719000000     3.521000000    -0.454000000
O     1.528000000     3.893000000    -9.317000000
H     1.517000000     4.657000000    -8.741000000
H     0.607000000     3.736000000    -9.525000000
O     2.088000000     0.861000000    -7.288000000
H     2.781000000     1.507000000    -7.424000000
H     1.899000000     0.907000000    -6.351000000
O     1.363000000     6.500000000    -7.775000000
H     1.854000000     6.357000000    -6.966000000
H     1.256000000     7.449000000    -7.826000000
O     1.365000000     4.758000000    -2.261000000
H     0.529000000     4.581000000    -2.692000000
H     1.952000000     4.076000000    -2.587000000
O     4.066000000     4.886000000    -7.098000000
H     3.523000000     5.462000000    -6.560000000
H     4.349000000     4.194000000    -6.501000000
O     5.997000000     6.511000000    -4.674000000
H     5.214000000     6.147000000    -5.088000000
H     5.662000000     7.027000000    -3.940000000
O    -1.756000000     3.625000000    -5.545000000
H    -1.624000000     3.933000000    -4.648000000
H    -1.294000000     4.264000000    -6.088000000
O     2.435000000    -1.240000000    -9.073000000
H     2.600000000    -0.865000000    -8.207000000
H     1.534000000    -0.988000000    -9.275000000
O    -0.893000000     1.079000000    -6.436000000
H    -1.209000000     1.961000000    -6.236000000
H    -0.055000000     1.016000000    -5.979000000
O    -0.377000000     7.814000000    -3.064000000
H    -0.481000000     8.675000000    -3.470000000
H     0.505000000     7.537000000    -3.312000000
O     1.155000000     3.730000000    -6.352000000
H     1.492000000     3.316000000    -5.558000000
H     1.272000000     3.069000000    -7.034000000
O     2.764000000     6.125000000    -5.236000000
H     2.145000000     5.411000000    -5.079000000
H     2.637000000     6.719000000    -4.496000000
