215
-1458.98815
C    -0.999000000     0.381000000     5.063000000
H    -1.246000000    -0.662000000     4.877000000
C    -1.641000000     1.483000000     4.448000000
C    -1.168000000     2.726000000     4.729000000
H    -1.580000000     3.603000000     4.236000000
C    -2.651000000     1.157000000     3.350000000
O    -3.611000000     0.212000000     3.757000000
H    -1.932000000     0.657000000     2.683000000
O    -3.194000000     2.420000000     2.853000000
C    -3.318000000     2.565000000     1.506000000
C    -2.465000000     3.519000000     0.890000000
H    -1.691000000     4.018000000     1.467000000
C    -2.654000000     3.842000000    -0.468000000
O    -1.733000000     4.598000000    -1.038000000
C    -3.674000000     3.146000000    -1.188000000
C    -3.707000000     3.257000000    -2.678000000
H    -4.717000000     3.034000000    -3.030000000
C    -2.665000000     2.437000000    -3.431000000
C    -3.022000000     1.107000000    -3.658000000
H    -4.053000000     0.783000000    -3.541000000
H    -3.488000000     4.288000000    -2.964000000
C    -4.523000000     2.275000000    -0.521000000
H    -5.264000000     1.742000000    -1.112000000
C    -4.368000000     1.963000000     0.798000000
C    -5.324000000     1.007000000     1.417000000
H    -6.260000000     1.161000000     0.877000000
H    -5.648000000     1.368000000     2.395000000
C    -4.643000000    -0.321000000     1.570000000
C    -4.824000000    -1.345000000     0.584000000
H    -5.534000000    -1.224000000    -0.230000000
C    -3.908000000    -0.660000000     2.728000000
C    -3.203000000    -1.837000000     2.761000000
H    -2.573000000    -2.138000000     3.594000000
C    -3.183000000    -2.780000000     1.736000000
O    -2.416000000    -3.891000000     1.767000000
C    -1.331000000    -3.894000000     0.822000000
C    -0.082000000    -4.555000000     1.459000000
C     0.735000000    -5.383000000     0.702000000
H     0.492000000    -5.626000000    -0.330000000
C     0.417000000    -4.118000000     2.698000000
H    -0.212000000    -3.438000000     3.266000000
O    -1.703000000    -4.669000000    -0.374000000
H    -1.076000000    -2.844000000     0.614000000
C    -4.098000000    -2.546000000     0.648000000
C    -4.223000000    -3.523000000    -0.454000000
H    -5.215000000    -3.350000000    -0.876000000
H    -4.295000000    -4.569000000    -0.148000000
C    -3.216000000    -3.318000000    -1.587000000
C    -3.516000000    -2.574000000    -2.791000000
H    -4.497000000    -2.125000000    -2.924000000
C    -1.987000000    -3.954000000    -1.509000000
C    -0.968000000    -3.741000000    -2.520000000
H    -0.008000000    -4.158000000    -2.230000000
C    -1.169000000    -2.814000000    -3.488000000
O    -0.037000000    -2.369000000    -4.245000000
C     0.638000000    -1.153000000    -3.870000000
C     2.158000000    -1.279000000    -3.904000000
C     2.792000000    -2.365000000    -3.262000000
H     2.165000000    -3.112000000    -2.782000000
C     3.063000000    -0.290000000    -4.438000000
H     2.587000000     0.604000000    -4.835000000
O     0.246000000    -0.204000000    -4.799000000
H     0.271000000    -0.813000000    -2.890000000
C    -2.436000000    -2.267000000    -3.644000000
C    -2.669000000    -1.172000000    -4.637000000
H    -3.735000000    -1.141000000    -4.875000000
H    -2.194000000    -1.464000000    -5.576000000
C    -2.130000000     0.198000000    -4.212000000
C    -0.849000000     0.614000000    -4.555000000
C    -0.397000000     1.894000000    -4.239000000
H     0.645000000     2.201000000    -4.278000000
C    -1.328000000     2.766000000    -3.661000000
O    -0.823000000     3.903000000    -2.994000000
C    -0.600000000     3.834000000    -1.566000000
H    -0.591000000     2.774000000    -1.270000000
C     0.774000000     4.336000000    -1.115000000
C     0.953000000     4.975000000     0.108000000
H     0.125000000     5.020000000     0.811000000
C     1.872000000     4.219000000    -1.971000000
H     1.717000000     3.744000000    -2.937000000
C     3.132000000     4.691000000    -1.580000000
O     4.272000000     4.534000000    -2.337000000
C     3.354000000     5.289000000    -0.301000000
H     4.354000000     5.488000000     0.076000000
C     2.204000000     5.465000000     0.519000000
O     2.416000000     5.942000000     1.813000000
C     1.415000000     6.036000000     2.764000000
C     1.301000000     4.995000000     3.733000000
H     1.870000000     4.094000000     3.520000000
C     0.778000000     7.256000000     2.983000000
H     1.055000000     8.108000000     2.368000000
C     0.008000000     7.386000000     4.096000000
H    -0.542000000     8.317000000     4.208000000
C    -0.209000000     6.325000000     5.034000000
H    -0.733000000     6.489000000     5.972000000
C     0.534000000     5.142000000     4.890000000
O     0.433000000     4.135000000     5.787000000
C    -0.108000000     2.907000000     5.561000000
C     0.561000000     1.845000000     6.109000000
H     1.420000000     1.952000000     6.767000000
C     0.017000000     0.577000000     6.001000000
O     0.631000000    -0.439000000     6.726000000
C     0.476000000    -1.785000000     6.445000000
C     1.348000000    -2.359000000     5.530000000
H     2.040000000    -1.766000000     4.937000000
C    -0.369000000    -2.554000000     7.250000000
H    -0.928000000    -2.035000000     8.025000000
C    -0.389000000    -3.921000000     7.032000000
H    -1.054000000    -4.562000000     7.604000000
C     0.440000000    -4.483000000     6.094000000
H     0.304000000    -5.547000000     5.917000000
C     1.349000000    -3.736000000     5.366000000
O     2.141000000    -4.339000000     4.389000000
C     1.680000000    -4.644000000     3.176000000
C     2.437000000    -5.484000000     2.403000000
H     3.434000000    -5.752000000     2.746000000
C     1.922000000    -5.925000000     1.223000000
O     2.657000000    -6.673000000     0.343000000
C     3.112000000    -6.275000000    -0.856000000
C     3.834000000    -5.073000000    -1.097000000
H     4.170000000    -4.482000000    -0.249000000
C     2.896000000    -7.147000000    -1.915000000
H     2.468000000    -8.114000000    -1.668000000
C     3.104000000    -6.690000000    -3.174000000
H     2.727000000    -7.301000000    -3.991000000
C     3.672000000    -5.435000000    -3.426000000
H     3.528000000    -4.933000000    -4.379000000
C     4.182000000    -4.707000000    -2.352000000
O     4.725000000    -3.464000000    -2.543000000
C     4.129000000    -2.481000000    -3.182000000
C     4.951000000    -1.556000000    -3.770000000
H     6.007000000    -1.712000000    -3.975000000
C     4.399000000    -0.461000000    -4.461000000
O     5.314000000     0.548000000    -4.814000000
C     4.891000000     1.862000000    -4.785000000
C     4.342000000     2.425000000    -5.938000000
H     4.391000000     1.838000000    -6.851000000
C     3.638000000     3.640000000    -5.858000000
H     3.233000000     4.177000000    -6.712000000
C     3.616000000     4.370000000    -4.602000000
H     3.189000000     5.364000000    -4.502000000
C     4.277000000     3.800000000    -3.477000000
C     4.853000000     2.563000000    -3.543000000
H     5.267000000     2.196000000    -2.607000000
C     2.560000000     1.268000000    -0.410000000
H     3.250000000     1.155000000    -1.243000000
C     1.213000000     1.165000000    -0.667000000
H     0.832000000     1.059000000    -1.679000000
C     0.317000000     0.904000000     0.411000000
H    -0.801000000     0.702000000     0.392000000
C     0.798000000     1.007000000     1.683000000
H     0.053000000     1.003000000     2.475000000
C     2.143000000     1.147000000     1.933000000
H     2.406000000     1.165000000     2.988000000
C     3.091000000     1.253000000     0.901000000
C     4.616000000     1.356000000     1.268000000
O     5.067000000     0.916000000     2.294000000
O     5.326000000     1.940000000     0.471000000
O     6.489000000    -2.300000000    -0.366000000
H     6.529000000    -2.555000000    -1.288000000
H     7.364000000    -2.487000000    -0.028000000
O     4.661000000    -1.221000000     3.951000000
H     4.491000000    -1.895000000     3.294000000
H     4.766000000    -0.415000000     3.446000000
O     9.207000000     2.337000000    -2.633000000
H     9.901000000     1.762000000    -2.955000000
H     8.640000000     1.764000000    -2.119000000
O     7.058000000    -3.897000000     2.481000000
H     6.515000000    -3.296000000     1.971000000
H     6.763000000    -4.768000000     2.218000000
O     4.181000000     0.595000000     6.282000000
H     4.495000000    -0.102000000     5.706000000
H     4.116000000     1.363000000     5.715000000
O     9.117000000    -0.619000000    -3.077000000
H     8.466000000    -0.268000000    -2.469000000
H     9.956000000    -0.305000000    -2.738000000
O     6.989000000    -0.807000000     5.031000000
H     6.095000000    -0.796000000     4.689000000
H     7.188000000     0.112000000     5.212000000
O     7.475000000     3.093000000    -0.050000000
H     7.607000000     3.814000000    -0.666000000
H     6.586000000     2.787000000    -0.227000000
O     4.286000000     2.453000000     4.379000000
H     4.456000000     1.968000000     3.571000000
H     4.590000000     3.341000000     4.193000000
O     7.051000000     4.601000000     2.263000000
H     7.505000000     4.077000000     2.923000000
H     7.114000000     4.083000000     1.461000000
O     4.207000000    -2.551000000     1.404000000
H     3.289000000    -2.481000000     1.142000000
H     4.697000000    -2.473000000     0.585000000
O     8.992000000     2.730000000     3.491000000
H     9.900000000     2.537000000     3.259000000
H     8.511000000     1.935000000     3.260000000
O     4.817000000     5.017000000     3.629000000
H     5.701000000     5.146000000     3.284000000
H     4.245000000     5.431000000     2.983000000
O     9.474000000     1.343000000     0.212000000
H     8.760000000     1.924000000    -0.052000000
H     9.075000000     0.748000000     0.847000000
O     7.833000000     0.531000000     2.424000000
H     6.910000000     0.740000000     2.279000000
H     7.818000000    -0.292000000     2.912000000
O     7.976000000     6.810000000     1.153000000
H     8.721000000     6.286000000     0.859000000
H     7.592000000     6.301000000     1.867000000
O     7.039000000     0.336000000    -1.221000000
H     6.520000000     0.863000000    -0.613000000
H     6.942000000    -0.562000000    -0.902000000
O     7.561000000     1.882000000     5.813000000
H     7.703000000     2.538000000     5.130000000
H     8.415000000     1.787000000     6.235000000
O     5.598000000     5.471000000     6.468000000
H     5.094000000     5.054000000     5.769000000
H     5.230000000     5.109000000     7.275000000
