215
-1458.58069
C    -0.994000000     0.590000000     5.708000000
H    -1.411000000    -0.406000000     5.586000000
C    -1.353000000     1.690000000     4.932000000
C    -0.744000000     2.909000000     5.193000000
H    -0.872000000     3.743000000     4.509000000
C    -2.282000000     1.382000000     3.712000000
O    -3.189000000     0.198000000     3.946000000
H    -1.735000000     1.099000000     2.800000000
O    -3.134000000     2.551000000     3.417000000
C    -3.367000000     2.754000000     2.076000000
C    -2.439000000     3.609000000     1.450000000
H    -1.586000000     3.944000000     2.034000000
C    -2.606000000     3.832000000     0.106000000
O    -1.551000000     4.518000000    -0.421000000
C    -3.533000000     3.116000000    -0.696000000
C    -3.791000000     3.366000000    -2.164000000
H    -4.801000000     3.166000000    -2.527000000
C    -2.927000000     2.528000000    -3.084000000
C    -3.438000000     1.252000000    -3.515000000
H    -4.460000000     0.989000000    -3.255000000
H    -3.647000000     4.425000000    -2.388000000
C    -4.392000000     2.215000000    -0.037000000
H    -5.180000000     1.717000000    -0.596000000
C    -4.318000000     2.071000000     1.327000000
C    -5.207000000     1.034000000     2.011000000
H    -6.072000000     0.898000000     1.358000000
H    -5.419000000     1.379000000     3.025000000
C    -4.461000000    -0.283000000     1.993000000
C    -4.748000000    -1.193000000     0.975000000
H    -5.431000000    -0.912000000     0.178000000
C    -3.513000000    -0.611000000     2.943000000
C    -2.731000000    -1.777000000     2.816000000
H    -1.878000000    -1.959000000     3.463000000
C    -3.067000000    -2.731000000     1.830000000
O    -2.353000000    -3.908000000     1.774000000
C    -1.339000000    -3.940000000     0.833000000
C     0.058000000    -4.239000000     1.339000000
C     1.070000000    -4.587000000     0.400000000
H     0.943000000    -4.506000000    -0.677000000
C     0.449000000    -3.935000000     2.646000000
H    -0.311000000    -3.639000000     3.364000000
O    -1.758000000    -4.685000000    -0.397000000
H    -1.247000000    -2.910000000     0.460000000
C    -4.095000000    -2.436000000     0.880000000
C    -4.462000000    -3.380000000    -0.240000000
H    -5.487000000    -3.281000000    -0.606000000
H    -4.378000000    -4.394000000     0.156000000
C    -3.508000000    -3.279000000    -1.370000000
C    -3.734000000    -2.378000000    -2.367000000
H    -4.647000000    -1.793000000    -2.297000000
C    -2.203000000    -3.974000000    -1.424000000
C    -1.350000000    -3.838000000    -2.498000000
H    -0.420000000    -4.401000000    -2.476000000
C    -1.648000000    -2.776000000    -3.454000000
O    -0.735000000    -2.432000000    -4.418000000
C     0.025000000    -1.159000000    -4.261000000
C     1.440000000    -1.432000000    -4.649000000
C     2.103000000    -2.633000000    -4.529000000
H     1.567000000    -3.499000000    -4.150000000
C     2.213000000    -0.356000000    -5.081000000
H     1.646000000     0.520000000    -5.388000000
O    -0.487000000    -0.109000000    -5.108000000
H    -0.029000000    -0.897000000    -3.194000000
C    -2.888000000    -2.111000000    -3.417000000
C    -3.198000000    -1.018000000    -4.470000000
H    -4.269000000    -0.984000000    -4.681000000
H    -2.794000000    -1.429000000    -5.398000000
C    -2.625000000     0.370000000    -4.158000000
C    -1.328000000     0.789000000    -4.481000000
C    -0.851000000     2.018000000    -4.034000000
H     0.157000000     2.241000000    -4.375000000
C    -1.623000000     2.872000000    -3.354000000
O    -1.052000000     3.971000000    -2.667000000
C    -0.650000000     3.715000000    -1.262000000
H    -0.856000000     2.660000000    -1.028000000
C     0.843000000     3.933000000    -1.057000000
C     1.271000000     4.066000000     0.273000000
H     0.529000000     3.892000000     1.048000000
C     1.799000000     3.988000000    -2.042000000
H     1.409000000     4.004000000    -3.056000000
C     3.157000000     4.224000000    -1.754000000
O     3.996000000     4.404000000    -2.786000000
C     3.575000000     4.266000000    -0.397000000
H     4.622000000     4.375000000    -0.124000000
C     2.608000000     4.209000000     0.605000000
O     3.110000000     4.029000000     1.874000000
C     2.570000000     4.715000000     3.003000000
C     2.087000000     4.134000000     4.181000000
H     1.968000000     3.060000000     4.306000000
C     2.606000000     6.098000000     2.940000000
H     3.024000000     6.623000000     2.085000000
C     2.109000000     6.811000000     4.042000000
H     2.148000000     7.896000000     3.988000000
C     1.591000000     6.231000000     5.166000000
H     1.405000000     6.802000000     6.071000000
C     1.556000000     4.827000000     5.196000000
O     0.889000000     4.239000000     6.296000000
C     0.222000000     3.028000000     6.125000000
C     0.642000000     1.925000000     6.828000000
H     1.398000000     2.041000000     7.600000000
C     0.035000000     0.716000000     6.641000000
O     0.419000000    -0.326000000     7.484000000
C     0.449000000    -1.621000000     6.966000000
C     1.307000000    -1.964000000     5.912000000
H     1.935000000    -1.213000000     5.439000000
C    -0.384000000    -2.610000000     7.444000000
H    -1.033000000    -2.461000000     8.303000000
C    -0.426000000    -3.820000000     6.813000000
H    -1.131000000    -4.567000000     7.168000000
C     0.368000000    -4.185000000     5.775000000
H     0.307000000    -5.186000000     5.355000000
C     1.264000000    -3.250000000     5.356000000
O     2.160000000    -3.563000000     4.345000000
C     1.728000000    -4.039000000     3.132000000
C     2.682000000    -4.488000000     2.173000000
H     3.740000000    -4.546000000     2.414000000
C     2.384000000    -4.675000000     0.841000000
O     3.511000000    -4.680000000    -0.066000000
C     3.470000000    -5.267000000    -1.305000000
C     3.796000000    -4.452000000    -2.352000000
H     3.787000000    -3.376000000    -2.198000000
C     3.313000000    -6.633000000    -1.490000000
H     2.997000000    -7.267000000    -0.665000000
C     3.285000000    -7.054000000    -2.834000000
H     3.026000000    -8.099000000    -2.983000000
C     3.669000000    -6.269000000    -3.894000000
H     3.650000000    -6.725000000    -4.880000000
C     3.916000000    -4.923000000    -3.651000000
O     4.128000000    -4.067000000    -4.756000000
C     3.482000000    -2.781000000    -4.782000000
C     4.247000000    -1.738000000    -5.165000000
H     5.305000000    -1.835000000    -5.398000000
C     3.597000000    -0.483000000    -5.297000000
O     4.382000000     0.612000000    -5.498000000
C     3.904000000     1.882000000    -5.343000000
C     3.308000000     2.569000000    -6.366000000
H     3.205000000     2.061000000    -7.322000000
C     2.904000000     3.881000000    -6.134000000
H     2.318000000     4.331000000    -6.931000000
C     3.216000000     4.555000000    -5.001000000
H     2.936000000     5.595000000    -4.851000000
C     3.825000000     3.824000000    -3.975000000
C     4.219000000     2.496000000    -4.151000000
H     4.604000000     1.932000000    -3.305000000
C     1.995000000     0.687000000    -1.074000000
H     2.459000000     0.880000000    -2.038000000
C     0.607000000     0.579000000    -1.049000000
H     0.066000000     0.933000000    -1.923000000
C    -0.156000000     0.199000000     0.032000000
H    -1.189000000     0.070000000    -0.097000000
C     0.586000000    -0.156000000     1.194000000
H     0.084000000    -0.562000000     2.068000000
C     1.953000000     0.027000000     1.234000000
H     2.548000000    -0.178000000     2.120000000
C     2.715000000     0.355000000     0.100000000
C     4.292000000     0.501000000     0.080000000
O     4.876000000     0.083000000     1.099000000
O     4.858000000     1.212000000    -0.747000000
O     7.782000000    -2.868000000     0.190000000
H     8.344000000    -3.630000000     0.049000000
H     7.648000000    -2.503000000    -0.684000000
O     9.602000000    -2.593000000     2.764000000
H     9.011000000    -1.999000000     3.226000000
H    10.214000000    -2.894000000     3.436000000
O     5.102000000    -1.041000000     3.446000000
H     5.134000000    -1.991000000     3.333000000
H     5.223000000    -0.691000000     2.564000000
O    10.327000000     0.278000000     1.221000000
H     9.439000000     0.011000000     0.982000000
H    10.863000000    -0.497000000     1.055000000
O     4.101000000     0.629000000     5.426000000
H     4.131000000    -0.118000000     4.828000000
H     4.525000000     1.339000000     4.943000000
O     8.116000000    -2.001000000    -3.552000000
H     7.619000000    -1.330000000    -3.086000000
H     8.555000000    -1.527000000    -4.258000000
O     7.013000000     2.601000000    -1.148000000
H     6.910000000     3.212000000    -1.877000000
H     6.197000000     2.100000000    -1.138000000
O     6.259000000     2.008000000     4.307000000
H     7.166000000     2.310000000     4.361000000
H     6.034000000     2.092000000     3.381000000
O     5.942000000     2.588000000     1.635000000
H     5.334000000     1.915000000     1.329000000
H     6.187000000     3.068000000     0.844000000
O     8.125000000    -1.284000000     4.770000000
H     7.408000000    -1.111000000     4.160000000
H     7.944000000    -0.716000000     5.520000000
O     6.225000000    -3.576000000     2.806000000
H     6.581000000    -4.342000000     3.257000000
H     6.695000000    -3.549000000     1.973000000
O     5.902000000    -6.195000000     0.807000000
H     5.076000000    -5.718000000     0.730000000
H     6.339000000    -6.057000000    -0.033000000
O     5.600000000     4.970000000     4.113000000
H     4.897000000     4.760000000     3.498000000
H     6.384000000     4.583000000     3.722000000
O     9.666000000     2.457000000    -0.154000000
H     8.744000000     2.402000000    -0.407000000
H     9.816000000     1.672000000     0.373000000
O     7.702000000    -0.222000000     0.846000000
H     6.836000000     0.157000000     1.000000000
H     7.529000000    -1.144000000     0.653000000
O     8.177000000     4.508000000     1.565000000
H     9.106000000     4.363000000     1.389000000
H     7.806000000     3.629000000     1.640000000
O     6.832000000    -0.232000000    -1.733000000
H     7.372000000    -0.102000000    -0.953000000
H     5.991000000     0.167000000    -1.511000000
O     7.194000000     1.681000000    -5.355000000
H     7.807000000     1.295000000    -5.981000000
H     6.928000000     0.949000000    -4.798000000
O     6.745000000     4.480000000    -4.795000000
H     7.349000000     4.618000000    -4.066000000
H     6.717000000     3.530000000    -4.907000000
