215
-1450.55046
C    -1.363000000    -0.006000000     5.282000000
H    -2.007000000    -0.869000000     5.132000000
C    -1.477000000     1.093000000     4.426000000
C    -0.518000000     2.092000000     4.579000000
H    -0.479000000     2.872000000     3.823000000
C    -2.451000000     1.035000000     3.263000000
O    -3.465000000    -0.003000000     3.547000000
H    -1.791000000     0.766000000     2.426000000
O    -3.263000000     2.283000000     3.098000000
C    -3.494000000     2.698000000     1.771000000
C    -2.654000000     3.654000000     1.252000000
H    -1.846000000     4.056000000     1.858000000
C    -2.656000000     3.890000000    -0.109000000
O    -1.695000000     4.743000000    -0.504000000
C    -3.591000000     3.322000000    -0.914000000
C    -3.632000000     3.666000000    -2.421000000
H    -4.652000000     3.506000000    -2.774000000
C    -2.648000000     2.847000000    -3.206000000
C    -3.092000000     1.584000000    -3.781000000
H    -4.097000000     1.254000000    -3.531000000
H    -3.384000000     4.721000000    -2.551000000
C    -4.575000000     2.454000000    -0.361000000
H    -5.344000000     2.032000000    -1.003000000
C    -4.488000000     2.078000000     0.958000000
C    -5.325000000     0.943000000     1.576000000
H    -6.334000000     0.874000000     1.164000000
H    -5.449000000     1.208000000     2.628000000
C    -4.687000000    -0.447000000     1.468000000
C    -4.888000000    -1.191000000     0.315000000
H    -5.452000000    -0.777000000    -0.516000000
C    -3.744000000    -0.797000000     2.436000000
C    -3.121000000    -1.977000000     2.332000000
H    -2.542000000    -2.309000000     3.190000000
C    -3.277000000    -2.817000000     1.232000000
O    -2.432000000    -3.972000000     1.188000000
C    -1.296000000    -3.817000000     0.326000000
C    -0.018000000    -4.398000000     0.908000000
C     1.043000000    -4.873000000     0.108000000
H     1.023000000    -4.965000000    -0.975000000
C     0.156000000    -4.212000000     2.266000000
H    -0.624000000    -3.800000000     2.902000000
O    -1.526000000    -4.409000000    -0.943000000
H    -1.025000000    -2.763000000     0.165000000
C    -4.156000000    -2.387000000     0.184000000
C    -4.367000000    -3.219000000    -1.056000000
H    -5.339000000    -2.913000000    -1.446000000
H    -4.301000000    -4.295000000    -0.881000000
C    -3.232000000    -2.925000000    -2.065000000
C    -3.470000000    -2.105000000    -3.182000000
H    -4.438000000    -1.627000000    -3.304000000
C    -1.950000000    -3.651000000    -1.976000000
C    -0.982000000    -3.452000000    -2.909000000
H    -0.009000000    -3.928000000    -2.816000000
C    -1.127000000    -2.427000000    -3.840000000
O    -0.014000000    -2.132000000    -4.633000000
C     0.604000000    -0.902000000    -4.290000000
C     2.134000000    -1.043000000    -4.272000000
C     2.764000000    -2.256000000    -3.999000000
H     2.245000000    -3.210000000    -3.965000000
C     2.961000000     0.091000000    -4.488000000
H     2.556000000     1.088000000    -4.634000000
O     0.107000000     0.187000000    -5.034000000
H     0.294000000    -0.711000000    -3.252000000
C    -2.419000000    -1.836000000    -4.084000000
C    -2.612000000    -0.672000000    -5.008000000
H    -3.691000000    -0.706000000    -5.174000000
H    -2.145000000    -0.875000000    -5.974000000
C    -2.228000000     0.754000000    -4.445000000
C    -0.874000000     1.104000000    -4.508000000
C    -0.409000000     2.283000000    -3.927000000
H     0.659000000     2.483000000    -3.878000000
C    -1.232000000     3.150000000    -3.260000000
O    -0.720000000     4.309000000    -2.657000000
C    -0.606000000     4.097000000    -1.214000000
H    -0.734000000     3.032000000    -0.968000000
C     0.739000000     4.447000000    -0.598000000
C     0.841000000     5.288000000     0.524000000
H    -0.066000000     5.635000000     1.012000000
C     1.879000000     3.982000000    -1.246000000
H     1.755000000     3.221000000    -2.012000000
C     3.101000000     4.275000000    -0.692000000
O     4.256000000     3.715000000    -1.295000000
C     3.283000000     4.964000000     0.493000000
H     4.286000000     5.141000000     0.872000000
C     2.128000000     5.517000000     1.091000000
O     2.193000000     6.257000000     2.226000000
C     1.642000000     5.869000000     3.466000000
C     1.699000000     4.522000000     3.951000000
H     2.090000000     3.798000000     3.240000000
C     1.119000000     6.804000000     4.308000000
H     1.130000000     7.828000000     3.942000000
C     0.744000000     6.521000000     5.613000000
H     0.396000000     7.273000000     6.317000000
C     0.768000000     5.195000000     6.098000000
H     0.399000000     4.941000000     7.088000000
C     1.351000000     4.254000000     5.305000000
O     1.413000000     2.993000000     5.768000000
C     0.375000000     2.045000000     5.635000000
C     0.488000000     0.963000000     6.480000000
H     1.157000000     0.954000000     7.338000000
C    -0.420000000    -0.061000000     6.324000000
O    -0.406000000    -1.140000000     7.149000000
C    -0.311000000    -2.422000000     6.609000000
C     0.649000000    -2.816000000     5.629000000
H     1.380000000    -2.088000000     5.289000000
C    -1.260000000    -3.362000000     7.051000000
H    -2.103000000    -3.092000000     7.682000000
C    -1.261000000    -4.645000000     6.544000000
H    -2.063000000    -5.325000000     6.822000000
C    -0.372000000    -5.019000000     5.527000000
H    -0.291000000    -6.023000000     5.119000000
C     0.641000000    -4.139000000     5.127000000
O     1.578000000    -4.551000000     4.194000000
C     1.380000000    -4.658000000     2.839000000
C     2.361000000    -5.282000000     2.101000000
H     3.229000000    -5.734000000     2.572000000
C     2.240000000    -5.251000000     0.670000000
O     3.335000000    -5.753000000    -0.049000000
C     3.373000000    -5.797000000    -1.393000000
C     3.956000000    -4.733000000    -2.036000000
H     4.128000000    -3.790000000    -1.523000000
C     3.051000000    -6.944000000    -2.053000000
H     2.711000000    -7.843000000    -1.544000000
C     2.989000000    -6.879000000    -3.441000000
H     2.618000000    -7.680000000    -4.075000000
C     3.571000000    -5.852000000    -4.143000000
H     3.580000000    -5.786000000    -5.228000000
C     4.114000000    -4.786000000    -3.403000000
O     4.682000000    -3.736000000    -4.053000000
C     4.150000000    -2.448000000    -4.097000000
C     4.948000000    -1.399000000    -4.481000000
H     6.003000000    -1.589000000    -4.658000000
C     4.325000000    -0.119000000    -4.648000000
O     5.105000000     0.993000000    -5.090000000
C     4.922000000     2.281000000    -4.574000000
C     4.650000000     3.374000000    -5.401000000
H     4.665000000     3.060000000    -6.442000000
C     4.146000000     4.612000000    -4.817000000
H     3.844000000     5.524000000    -5.326000000
C     4.036000000     4.729000000    -3.423000000
H     3.692000000     5.589000000    -2.854000000
C     4.369000000     3.623000000    -2.653000000
C     4.841000000     2.442000000    -3.218000000
H     5.035000000     1.536000000    -2.649000000
C     2.631000000     0.769000000     0.478000000
H     3.520000000     1.347000000     0.237000000
C     1.625000000     0.607000000    -0.474000000
H     1.707000000     0.938000000    -1.506000000
C     0.464000000     0.026000000    -0.210000000
H    -0.407000000     0.063000000    -0.943000000
C     0.264000000    -0.574000000     1.110000000
H    -0.738000000    -0.953000000     1.296000000
C     1.235000000    -0.367000000     2.140000000
H     1.024000000    -0.835000000     3.098000000
C     2.368000000     0.418000000     1.841000000
C     3.446000000     0.689000000     2.847000000
O     3.405000000     0.128000000     3.927000000
O     4.435000000     1.310000000     2.527000000
O     4.582000000     0.914000000     8.482000000
H     3.792000000     0.653000000     8.956000000
H     4.292000000     1.029000000     7.577000000
O     8.197000000     1.702000000     2.440000000
H     8.389000000     2.307000000     1.723000000
H     9.029000000     1.262000000     2.611000000
O     7.047000000    -1.942000000     5.815000000
H     7.117000000    -1.647000000     4.907000000
H     7.933000000    -2.222000000     6.044000000
O     6.678000000    -1.043000000     8.485000000
H     6.907000000    -1.147000000     7.562000000
H     5.949000000    -0.423000000     8.483000000
O     4.010000000     1.737000000     5.975000000
H     3.400000000     2.473000000     5.918000000
H     3.747000000     1.152000000     5.265000000
O     5.845000000     3.471000000     2.701000000
H     6.614000000     2.933000000     2.887000000
H     5.131000000     2.842000000     2.595000000
O     6.253000000     3.067000000     7.268000000
H     6.399000000     2.441000000     7.978000000
H     5.425000000     2.793000000     6.873000000
O    10.104000000     3.091000000     4.216000000
H     9.249000000     3.125000000     4.646000000
H    10.230000000     3.973000000     3.865000000
O     6.791000000    -3.653000000     0.751000000
H     7.366000000    -2.891000000     0.826000000
H     5.957000000    -3.361000000     1.117000000
O     2.669000000    -2.486000000     8.282000000
H     1.805000000    -2.885000000     8.187000000
H     3.132000000    -2.722000000     7.478000000
O     7.352000000     5.579000000     1.764000000
H     6.698000000     6.052000000     1.250000000
H     6.891000000     4.802000000     2.082000000
O     6.435000000    -0.245000000     3.229000000
H     7.149000000    -0.103000000     2.608000000
H     5.786000000     0.423000000     3.006000000
O     6.748000000    -5.648000000     3.115000000
H     7.699000000    -5.539000000     3.104000000
H     6.408000000    -4.762000000     3.240000000
O     4.390000000     7.163000000     4.055000000
H     4.477000000     6.284000000     4.425000000
H     4.307000000     7.736000000     4.817000000
O     4.023000000    -2.104000000     5.730000000
H     3.588000000    -1.493000000     5.137000000
H     4.857000000    -1.683000000     5.939000000
O     4.846000000    -2.468000000     2.539000000
H     3.981000000    -2.483000000     2.948000000
H     5.250000000    -1.662000000     2.862000000
O     4.621000000     4.681000000     5.253000000
H     5.042000000     4.281000000     4.493000000
H     5.305000000     4.701000000     5.923000000
O     7.681000000     1.262000000     5.505000000
H     7.046000000     0.880000000     4.899000000
H     7.153000000     1.793000000     6.102000000
O     8.724000000    -1.663000000     1.074000000
H     9.184000000    -1.030000000     0.523000000
H     9.096000000    -1.535000000     1.947000000
