215
-1465.58477
C     4.543000000    -0.198000000    -2.023000000
H     4.264000000    -1.230000000    -2.221000000
C     4.406000000     0.354000000    -0.745000000
C     4.628000000     1.719000000    -0.494000000
H     4.425000000     2.094000000     0.506000000
C     3.936000000    -0.518000000     0.462000000
O     4.231000000    -1.897000000     0.201000000
H     2.856000000    -0.316000000     0.500000000
O     4.513000000    -0.057000000     1.770000000
C     3.595000000    -0.083000000     2.834000000
C     3.183000000     1.200000000     3.320000000
H     3.712000000     2.055000000     2.906000000
C     2.042000000     1.234000000     4.120000000
O     1.472000000     2.469000000     4.341000000
C     1.485000000    -0.005000000     4.591000000
C     0.272000000     0.004000000     5.481000000
H     0.343000000    -0.872000000     6.130000000
C    -1.055000000    -0.054000000     4.780000000
C    -1.654000000    -1.241000000     4.371000000
H    -1.234000000    -2.209000000     4.633000000
H     0.322000000     0.785000000     6.242000000
C     2.128000000    -1.264000000     4.241000000
H     1.570000000    -2.175000000     4.439000000
C     3.133000000    -1.283000000     3.310000000
C     3.765000000    -2.601000000     2.926000000
H     3.784000000    -3.237000000     3.813000000
H     4.800000000    -2.501000000     2.593000000
C     3.121000000    -3.307000000     1.796000000
C     2.099000000    -4.209000000     1.988000000
H     1.870000000    -4.390000000     3.035000000
C     3.278000000    -2.846000000     0.515000000
C     2.700000000    -3.488000000    -0.543000000
H     2.948000000    -3.237000000    -1.571000000
C     1.748000000    -4.488000000    -0.351000000
O     1.081000000    -4.833000000    -1.475000000
C    -0.104000000    -4.013000000    -1.885000000
C    -0.090000000    -3.739000000    -3.385000000
C    -1.253000000    -3.298000000    -3.961000000
H    -2.176000000    -3.281000000    -3.388000000
C     1.106000000    -3.652000000    -4.086000000
H     2.071000000    -3.978000000    -3.707000000
O    -1.312000000    -4.712000000    -1.461000000
H    -0.039000000    -3.111000000    -1.259000000
C     1.353000000    -4.765000000     0.946000000
C    -0.001000000    -5.521000000     1.134000000
H    -0.005000000    -6.012000000     2.110000000
H    -0.073000000    -6.332000000     0.406000000
C    -1.231000000    -4.630000000     0.994000000
C    -1.818000000    -4.037000000     2.126000000
H    -1.437000000    -4.105000000     3.142000000
C    -1.877000000    -4.374000000    -0.232000000
C    -2.921000000    -3.503000000    -0.380000000
H    -3.135000000    -3.156000000    -1.388000000
C    -3.386000000    -2.850000000     0.739000000
O    -4.432000000    -1.942000000     0.623000000
C    -4.088000000    -0.555000000     0.869000000
C    -4.542000000     0.361000000    -0.212000000
C    -4.923000000    -0.168000000    -1.446000000
H    -5.009000000    -1.240000000    -1.606000000
C    -4.676000000     1.784000000     0.039000000
H    -4.436000000     2.311000000     0.959000000
O    -4.343000000     0.026000000     2.164000000
H    -3.001000000    -0.398000000     0.811000000
C    -2.851000000    -3.119000000     1.990000000
C    -3.493000000    -2.578000000     3.296000000
H    -3.428000000    -3.313000000     4.101000000
H    -4.562000000    -2.468000000     3.100000000
C    -2.817000000    -1.217000000     3.594000000
C    -3.357000000    -0.025000000     3.052000000
C    -2.718000000     1.129000000     3.449000000
H    -3.075000000     2.075000000     3.049000000
C    -1.608000000     1.094000000     4.281000000
O    -0.948000000     2.298000000     4.477000000
C     0.185000000     2.587000000     3.640000000
H     0.183000000     2.003000000     2.708000000
C     0.109000000     3.975000000     3.028000000
C     1.248000000     4.699000000     2.641000000
H     2.249000000     4.285000000     2.721000000
C    -1.108000000     4.610000000     2.766000000
H    -2.012000000     4.152000000     3.158000000
C    -1.157000000     5.848000000     2.119000000
O    -2.319000000     6.512000000     2.106000000
C     0.002000000     6.501000000     1.663000000
H    -0.150000000     7.486000000     1.227000000
C     1.165000000     5.937000000     2.010000000
O     2.365000000     6.569000000     1.649000000
C     3.528000000     5.843000000     1.445000000
C     3.769000000     5.229000000     0.186000000
H     3.032000000     5.348000000    -0.604000000
C     4.521000000     5.735000000     2.436000000
H     4.379000000     6.276000000     3.368000000
C     5.701000000     4.977000000     2.167000000
H     6.495000000     4.918000000     2.906000000
C     5.926000000     4.317000000     0.970000000
H     6.832000000     3.750000000     0.772000000
C     5.006000000     4.514000000    -0.057000000
O     5.274000000     3.913000000    -1.269000000
C     5.068000000     2.576000000    -1.525000000
C     5.147000000     2.090000000    -2.854000000
H     5.592000000     2.631000000    -3.686000000
C     5.009000000     0.658000000    -3.048000000
O     5.247000000     0.093000000    -4.277000000
C     5.045000000    -1.205000000    -4.625000000
C     3.773000000    -1.533000000    -5.222000000
H     3.064000000    -0.769000000    -5.530000000
C     6.032000000    -2.196000000    -4.394000000
H     7.023000000    -1.947000000    -4.024000000
C     5.715000000    -3.504000000    -4.714000000
H     6.448000000    -4.279000000    -4.502000000
C     4.494000000    -3.826000000    -5.290000000
H     4.411000000    -4.830000000    -5.698000000
C     3.528000000    -2.870000000    -5.550000000
O     2.334000000    -3.226000000    -6.162000000
C     1.124000000    -3.276000000    -5.443000000
C    -0.057000000    -2.929000000    -6.075000000
H    -0.044000000    -2.420000000    -7.036000000
C    -1.248000000    -2.851000000    -5.292000000
O    -2.365000000    -2.210000000    -5.831000000
C    -3.656000000    -2.195000000    -5.271000000
C    -4.089000000    -1.033000000    -4.616000000
H    -3.374000000    -0.236000000    -4.427000000
C    -4.564000000    -3.250000000    -5.399000000
H    -4.259000000    -4.169000000    -5.893000000
C    -5.824000000    -3.221000000    -4.803000000
H    -6.403000000    -4.119000000    -5.006000000
C    -6.305000000    -2.028000000    -4.279000000
H    -7.296000000    -1.951000000    -3.840000000
C    -5.410000000    -0.976000000    -4.214000000
O    -5.847000000     0.187000000    -3.689000000
C    -5.446000000     0.691000000    -2.448000000
C    -5.595000000     2.060000000    -2.214000000
H    -5.986000000     2.741000000    -2.966000000
C    -5.146000000     2.554000000    -1.017000000
O    -5.328000000     3.882000000    -0.793000000
C    -5.075000000     4.577000000     0.450000000
C    -6.049000000     4.619000000     1.458000000
H    -7.016000000     4.146000000     1.302000000
C    -5.719000000     5.210000000     2.692000000
H    -6.464000000     5.323000000     3.476000000
C    -4.500000000     5.825000000     2.908000000
H    -4.358000000     6.367000000     3.840000000
C    -3.518000000     5.857000000     1.864000000
C    -3.847000000     5.277000000     0.625000000
H    -3.122000000     5.369000000    -0.180000000
C    -0.260000000     0.244000000    -1.820000000
H    -0.886000000    -0.279000000    -2.539000000
C    -0.303000000    -0.014000000    -0.468000000
H    -1.011000000    -0.701000000    -0.012000000
C     0.560000000     0.628000000     0.438000000
H     0.504000000     0.341000000     1.472000000
C     1.358000000     1.655000000    -0.046000000
H     2.031000000     2.238000000     0.578000000
C     1.341000000     2.031000000    -1.399000000
H     1.944000000     2.846000000    -1.790000000
C     0.482000000     1.317000000    -2.293000000
C     0.482000000     1.688000000    -3.710000000
O     1.070000000     2.692000000    -3.997000000
O    -0.027000000     1.011000000    -4.574000000
O    -1.807000000     5.712000000    -3.138000000
H    -2.596000000     6.204000000    -3.362000000
H    -2.120000000     4.825000000    -2.959000000
O     3.014000000     2.017000000    -5.775000000
H     3.298000000     2.917000000    -5.937000000
H     2.614000000     2.044000000    -4.906000000
O     2.014000000     4.975000000    -9.143000000
H     1.308000000     4.534000000    -9.616000000
H     1.565000000     5.594000000    -8.566000000
O    -0.225000000     7.865000000    -2.040000000
H    -1.005000000     8.326000000    -1.730000000
H    -0.517000000     6.964000000    -2.175000000
O    -3.483000000     4.087000000    -5.643000000
H    -2.841000000     3.402000000    -5.828000000
H    -2.989000000     4.904000000    -5.718000000
O     0.338000000    -0.315000000    -9.215000000
H    -0.535000000    -0.519000000    -8.879000000
H     0.831000000    -0.034000000    -8.444000000
O    -1.694000000     3.297000000    -1.087000000
H    -2.281000000     2.659000000    -0.681000000
H    -0.820000000     2.923000000    -0.976000000
O    -5.043000000     2.681000000    -7.922000000
H    -5.737000000     2.147000000    -7.535000000
H    -4.510000000     2.958000000    -7.177000000
O     1.257000000     0.484000000    -6.924000000
H     2.035000000     1.007000000    -6.730000000
H     0.700000000     0.589000000    -6.153000000
O     1.043000000     5.176000000    -3.253000000
H     0.143000000     5.447000000    -3.431000000
H     1.071000000     4.254000000    -3.508000000
O     4.971000000     5.647000000    -4.251000000
H     4.434000000     5.949000000    -3.519000000
H     4.343000000     5.467000000    -4.951000000
O    -1.882000000     6.340000000    -6.154000000
H    -1.864000000     7.234000000    -5.812000000
H    -0.999000000     6.006000000    -5.999000000
O    -5.987000000     4.408000000    -4.682000000
H    -5.245000000     3.861000000    -4.942000000
H    -5.661000000     5.305000000    -4.757000000
O     4.660000000     1.176000000    -7.910000000
H     4.135000000     1.426000000    -7.150000000
H     4.050000000     0.707000000    -8.479000000
O    -1.843000000     1.480000000    -6.519000000
H    -1.183000000     0.986000000    -6.032000000
H    -2.156000000     0.868000000    -7.186000000
O     2.659000000     7.507000000    -3.224000000
H     2.110000000     6.786000000    -2.916000000
H     2.170000000     8.297000000    -2.991000000
O    -2.317000000    -0.427000000    -8.622000000
H    -2.620000000     0.130000000    -9.339000000
H    -3.034000000    -1.046000000    -8.480000000
O     0.329000000     3.537000000    -6.420000000
H     0.399000000     3.236000000    -5.514000000
H    -0.371000000     3.004000000    -6.796000000
O     2.548000000     5.062000000    -5.984000000
H     1.866000000     4.457000000    -6.275000000
H     2.147000000     5.544000000    -5.260000000
