215
-1452.09487
C    -0.920000000    -1.018000000     5.129000000
H    -1.306000000    -2.002000000     4.877000000
C    -1.366000000     0.114000000     4.410000000
C    -0.686000000     1.318000000     4.664000000
H    -1.038000000     2.182000000     4.107000000
C    -2.487000000     0.024000000     3.411000000
O    -3.370000000    -1.102000000     3.536000000
H    -1.946000000    -0.054000000     2.456000000
O    -3.367000000     1.184000000     3.396000000
C    -3.693000000     1.833000000     2.224000000
C    -2.939000000     2.940000000     1.816000000
H    -2.194000000     3.413000000     2.450000000
C    -3.017000000     3.413000000     0.500000000
O    -2.126000000     4.429000000     0.123000000
C    -3.753000000     2.836000000    -0.438000000
C    -3.866000000     3.341000000    -1.879000000
H    -4.835000000     3.155000000    -2.347000000
C    -2.820000000     2.813000000    -2.846000000
C    -3.110000000     1.744000000    -3.639000000
H    -4.092000000     1.297000000    -3.512000000
H    -3.681000000     4.417000000    -1.840000000
C    -4.500000000     1.663000000     0.005000000
H    -5.107000000     1.143000000    -0.732000000
C    -4.413000000     1.148000000     1.254000000
C    -5.273000000    -0.093000000     1.631000000
H    -6.151000000    -0.057000000     0.981000000
H    -5.561000000     0.022000000     2.678000000
C    -4.517000000    -1.347000000     1.421000000
C    -4.656000000    -2.004000000     0.207000000
H    -5.324000000    -1.499000000    -0.486000000
C    -3.651000000    -1.849000000     2.411000000
C    -2.854000000    -2.922000000     2.149000000
H    -1.999000000    -3.141000000     2.783000000
C    -3.062000000    -3.620000000     0.952000000
O    -2.080000000    -4.502000000     0.581000000
C    -0.991000000    -4.010000000    -0.205000000
C     0.304000000    -4.560000000     0.287000000
C     1.278000000    -5.106000000    -0.558000000
H     1.089000000    -5.146000000    -1.628000000
C     0.663000000    -4.417000000     1.685000000
H     0.049000000    -3.779000000     2.316000000
O    -1.226000000    -4.587000000    -1.506000000
H    -1.017000000    -2.913000000    -0.282000000
C    -3.901000000    -3.153000000    -0.049000000
C    -3.904000000    -3.779000000    -1.469000000
H    -4.941000000    -3.679000000    -1.796000000
H    -3.774000000    -4.861000000    -1.396000000
C    -2.885000000    -3.151000000    -2.430000000
C    -3.192000000    -2.055000000    -3.291000000
H    -4.234000000    -1.767000000    -3.405000000
C    -1.572000000    -3.703000000    -2.446000000
C    -0.615000000    -3.172000000    -3.286000000
H     0.387000000    -3.592000000    -3.286000000
C    -0.923000000    -2.006000000    -4.019000000
O     0.128000000    -1.384000000    -4.719000000
C     0.608000000    -0.179000000    -4.136000000
C     2.146000000    -0.182000000    -4.045000000
C     2.789000000    -1.258000000    -3.426000000
H     2.247000000    -2.092000000    -2.986000000
C     2.855000000     1.012000000    -4.357000000
H     2.226000000     1.830000000    -4.699000000
O     0.069000000     0.833000000    -4.965000000
H     0.252000000    -0.059000000    -3.102000000
C    -2.218000000    -1.442000000    -4.061000000
C    -2.584000000    -0.288000000    -5.001000000
H    -3.652000000    -0.276000000    -5.232000000
H    -2.138000000    -0.394000000    -5.992000000
C    -2.149000000     1.028000000    -4.395000000
C    -0.875000000     1.547000000    -4.413000000
C    -0.588000000     2.671000000    -3.707000000
H     0.413000000     3.094000000    -3.679000000
C    -1.528000000     3.349000000    -2.913000000
O    -1.151000000     4.354000000    -2.079000000
C    -0.984000000     3.989000000    -0.629000000
H    -0.843000000     2.901000000    -0.551000000
C     0.320000000     4.658000000    -0.170000000
C     0.386000000     5.162000000     1.157000000
H    -0.375000000     4.917000000     1.893000000
C     1.418000000     4.920000000    -1.005000000
H     1.386000000     4.361000000    -1.937000000
C     2.496000000     5.632000000    -0.559000000
O     3.635000000     5.805000000    -1.277000000
C     2.593000000     6.082000000     0.751000000
H     3.402000000     6.624000000     1.234000000
C     1.458000000     5.918000000     1.567000000
O     1.435000000     6.463000000     2.843000000
C     0.814000000     5.773000000     3.923000000
C     1.159000000     4.470000000     4.358000000
H     1.916000000     3.884000000     3.843000000
C    -0.147000000     6.483000000     4.664000000
H    -0.468000000     7.482000000     4.378000000
C    -0.816000000     5.842000000     5.722000000
H    -1.728000000     6.261000000     6.139000000
C    -0.460000000     4.535000000     6.095000000
H    -0.946000000     4.100000000     6.964000000
C     0.551000000     3.834000000     5.422000000
O     1.014000000     2.579000000     5.802000000
C     0.352000000     1.410000000     5.606000000
C     0.635000000     0.275000000     6.397000000
H     1.391000000     0.355000000     7.174000000
C     0.030000000    -0.928000000     6.103000000
O     0.357000000    -2.068000000     6.846000000
C     0.512000000    -3.313000000     6.286000000
C     1.256000000    -3.471000000     5.154000000
H     1.939000000    -2.679000000     4.857000000
C    -0.199000000    -4.374000000     6.802000000
H    -0.599000000    -4.244000000     7.805000000
C    -0.183000000    -5.623000000     6.143000000
H    -0.778000000    -6.416000000     6.589000000
C     0.680000000    -5.825000000     5.064000000
H     0.797000000    -6.771000000     4.542000000
C     1.391000000    -4.698000000     4.569000000
O     2.234000000    -4.845000000     3.473000000
C     1.803000000    -5.065000000     2.162000000
C     2.660000000    -5.678000000     1.335000000
H     3.544000000    -6.146000000     1.760000000
C     2.416000000    -5.731000000    -0.027000000
O     3.297000000    -6.280000000    -0.936000000
C     3.728000000    -5.597000000    -2.006000000
C     4.095000000    -4.272000000    -1.881000000
H     4.092000000    -3.771000000    -0.916000000
C     3.702000000    -6.190000000    -3.276000000
H     3.261000000    -7.183000000    -3.312000000
C     4.285000000    -5.573000000    -4.362000000
H     4.274000000    -6.018000000    -5.354000000
C     4.736000000    -4.227000000    -4.194000000
H     5.133000000    -3.636000000    -5.015000000
C     4.513000000    -3.520000000    -2.995000000
O     4.951000000    -2.233000000    -2.900000000
C     4.218000000    -1.152000000    -3.364000000
C     4.908000000    -0.041000000    -3.722000000
H     5.984000000    -0.009000000    -3.573000000
C     4.212000000     1.065000000    -4.172000000
O     4.931000000     2.203000000    -4.217000000
C     4.375000000     3.451000000    -4.102000000
C     3.753000000     4.113000000    -5.228000000
H     3.693000000     3.678000000    -6.222000000
C     3.148000000     5.311000000    -4.951000000
H     2.672000000     5.787000000    -5.804000000
C     3.193000000     5.847000000    -3.677000000
H     2.773000000     6.820000000    -3.437000000
C     3.799000000     5.235000000    -2.592000000
C     4.391000000     4.004000000    -2.837000000
H     4.787000000     3.400000000    -2.025000000
C     1.880000000     1.325000000     0.611000000
H     2.397000000     2.257000000     0.398000000
C     0.915000000     1.033000000    -0.333000000
H     0.903000000     1.766000000    -1.136000000
C    -0.033000000     0.025000000     0.001000000
H    -0.877000000    -0.266000000    -0.676000000
C     0.148000000    -0.750000000     1.143000000
H    -0.483000000    -1.597000000     1.398000000
C     1.093000000    -0.388000000     2.092000000
H     1.159000000    -0.974000000     3.005000000
C     1.974000000     0.630000000     1.867000000
C     3.054000000     0.960000000     2.849000000
O     3.245000000     0.126000000     3.739000000
O     3.667000000     2.006000000     2.815000000
O     3.413000000     1.277000000     9.595000000
H     3.660000000     2.191000000     9.453000000
H     3.351000000     0.906000000     8.715000000
O     8.357000000    -0.264000000     4.031000000
H     7.657000000     0.385000000     4.098000000
H     8.304000000    -0.759000000     4.849000000
O     7.094000000    -2.797000000     0.340000000
H     6.784000000    -3.599000000     0.762000000
H     6.466000000    -2.127000000     0.610000000
O     3.856000000     2.646000000     5.384000000
H     2.975000000     2.643000000     5.757000000
H     3.755000000     2.235000000     4.526000000
O     5.182000000     3.990000000     1.870000000
H     6.058000000     3.679000000     2.098000000
H     4.590000000     3.369000000     2.295000000
O     5.593000000     4.370000000     6.172000000
H     5.122000000     5.133000000     5.836000000
H     5.011000000     3.632000000     5.993000000
O     5.045000000     3.654000000     8.748000000
H     5.319000000     4.487000000     9.130000000
H     5.292000000     3.721000000     7.825000000
O     5.331000000    -0.832000000     1.366000000
H     5.499000000    -0.171000000     0.695000000
H     5.067000000    -0.330000000     2.137000000
O     4.892000000    -5.438000000     4.345000000
H     4.593000000    -6.229000000     4.794000000
H     4.087000000    -4.994000000     4.081000000
O     7.503000000     5.715000000     0.463000000
H     6.649000000     5.536000000     0.855000000
H     7.309000000     5.917000000    -0.452000000
O     7.307000000     2.297000000     1.293000000
H     6.496000000     2.483000000     0.819000000
H     7.939000000     2.078000000     0.608000000
O     6.774000000     1.901000000     3.849000000
H     6.924000000     1.837000000     2.906000000
H     5.862000000     1.633000000     3.964000000
O     4.146000000     0.491000000     7.139000000
H     4.320000000    -0.316000000     6.654000000
H     4.391000000     1.191000000     6.535000000
O     4.442000000    -1.605000000     5.291000000
H     3.946000000    -1.010000000     4.729000000
H     4.959000000    -2.134000000     4.683000000
O     4.974000000     6.174000000     3.634000000
H     4.995000000     5.445000000     3.014000000
H     4.713000000     6.929000000     3.106000000
O     6.486000000    -0.089000000     8.412000000
H     6.881000000     0.128000000     9.257000000
H     5.569000000     0.168000000     8.503000000
O    -2.704000000     1.620000000     7.033000000
H    -2.069000000     1.222000000     6.438000000
H    -2.781000000     0.996000000     7.754000000
O     8.190000000     3.584000000     5.611000000
H     8.255000000     2.948000000     4.899000000
H     7.276000000     3.870000000     5.594000000
O     5.607000000     1.032000000    -0.948000000
H     5.322000000     1.383000000    -1.792000000
H     6.543000000     1.229000000    -0.912000000
