215
-1442.44291
C     0.473000000     2.023000000     4.472000000
H     0.094000000     1.006000000     4.422000000
C    -0.259000000     2.911000000     3.623000000
C     0.146000000     4.231000000     3.608000000
H    -0.411000000     4.962000000     3.029000000
C    -1.535000000     2.472000000     2.891000000
O    -2.477000000     1.738000000     3.685000000
H    -1.282000000     1.866000000     2.009000000
O    -2.294000000     3.608000000     2.442000000
C    -2.742000000     3.643000000     1.166000000
C    -1.825000000     4.212000000     0.254000000
H    -0.944000000     4.656000000     0.711000000
C    -2.055000000     4.062000000    -1.130000000
O    -1.045000000     4.494000000    -1.890000000
C    -3.155000000     3.318000000    -1.654000000
C    -3.392000000     3.018000000    -3.145000000
H    -4.434000000     3.024000000    -3.472000000
C    -2.649000000     1.728000000    -3.443000000
C    -3.352000000     0.542000000    -3.595000000
H    -4.396000000     0.633000000    -3.307000000
H    -2.973000000     3.844000000    -3.724000000
C    -4.067000000     2.844000000    -0.729000000
H    -4.905000000     2.216000000    -1.021000000
C    -3.861000000     2.940000000     0.664000000
C    -4.691000000     2.222000000     1.671000000
H    -5.707000000     2.087000000     1.295000000
H    -4.770000000     2.830000000     2.574000000
C    -4.166000000     0.905000000     2.103000000
C    -4.693000000    -0.202000000     1.439000000
H    -5.474000000    -0.101000000     0.690000000
C    -3.190000000     0.699000000     3.083000000
C    -2.819000000    -0.591000000     3.457000000
H    -2.000000000    -0.676000000     4.166000000
C    -3.343000000    -1.677000000     2.799000000
O    -2.727000000    -2.957000000     3.050000000
C    -1.833000000    -3.401000000     2.044000000
C    -0.558000000    -3.987000000     2.736000000
C     0.009000000    -5.110000000     2.166000000
H    -0.443000000    -5.558000000     1.284000000
C     0.049000000    -3.316000000     3.777000000
H    -0.318000000    -2.386000000     4.203000000
O    -2.571000000    -4.284000000     1.167000000
H    -1.462000000    -2.508000000     1.520000000
C    -4.323000000    -1.501000000     1.773000000
C    -4.825000000    -2.547000000     0.868000000
H    -5.786000000    -2.234000000     0.457000000
H    -5.147000000    -3.360000000     1.522000000
C    -3.887000000    -2.946000000    -0.249000000
C    -4.129000000    -2.457000000    -1.530000000
H    -4.887000000    -1.709000000    -1.753000000
C    -2.874000000    -3.818000000    -0.068000000
C    -1.965000000    -4.031000000    -1.101000000
H    -1.129000000    -4.726000000    -1.116000000
C    -2.168000000    -3.495000000    -2.367000000
O    -1.127000000    -3.748000000    -3.281000000
C    -0.230000000    -2.598000000    -3.342000000
C     1.152000000    -3.085000000    -3.467000000
C     1.572000000    -4.313000000    -3.082000000
H     0.791000000    -5.002000000    -2.771000000
C     2.143000000    -2.225000000    -3.922000000
H     1.777000000    -1.223000000    -4.129000000
O    -0.559000000    -1.714000000    -4.455000000
H    -0.350000000    -2.103000000    -2.367000000
C    -3.304000000    -2.711000000    -2.569000000
C    -3.411000000    -1.958000000    -3.909000000
H    -4.429000000    -1.730000000    -4.233000000
H    -3.197000000    -2.588000000    -4.774000000
C    -2.687000000    -0.661000000    -3.814000000
C    -1.284000000    -0.620000000    -4.140000000
C    -0.629000000     0.649000000    -4.167000000
H     0.447000000     0.751000000    -4.282000000
C    -1.278000000     1.805000000    -3.694000000
O    -0.527000000     2.894000000    -3.555000000
C    -0.184000000     3.419000000    -2.309000000
H    -0.195000000     2.589000000    -1.586000000
C     1.336000000     3.914000000    -2.353000000
C     1.858000000     4.764000000    -1.395000000
H     1.211000000     5.135000000    -0.603000000
C     2.175000000     3.459000000    -3.357000000
H     1.755000000     2.891000000    -4.183000000
C     3.519000000     3.702000000    -3.295000000
O     4.288000000     3.179000000    -4.307000000
C     4.094000000     4.539000000    -2.302000000
H     5.153000000     4.782000000    -2.274000000
C     3.198000000     5.109000000    -1.340000000
O     3.747000000     5.700000000    -0.245000000
C     3.041000000     6.370000000     0.712000000
C     2.815000000     5.718000000     1.892000000
H     3.183000000     4.726000000     2.141000000
C     2.492000000     7.645000000     0.401000000
H     2.698000000     7.985000000    -0.610000000
C     1.886000000     8.337000000     1.467000000
H     1.675000000     9.381000000     1.254000000
C     1.640000000     7.675000000     2.698000000
H     1.148000000     8.230000000     3.493000000
C     2.070000000     6.383000000     2.893000000
O     1.822000000     5.801000000     4.088000000
C     1.330000000     4.571000000     4.247000000
C     1.937000000     3.726000000     5.159000000
H     2.807000000     4.097000000     5.696000000
C     1.457000000     2.454000000     5.371000000
O     2.120000000     1.562000000     6.171000000
C     1.579000000     0.282000000     6.472000000
C     2.040000000    -0.819000000     5.764000000
H     2.828000000    -0.669000000     5.030000000
C     0.502000000     0.206000000     7.349000000
H     0.184000000     1.133000000     7.819000000
C    -0.109000000    -1.054000000     7.555000000
H    -0.960000000    -1.144000000     8.225000000
C     0.308000000    -2.227000000     6.861000000
H    -0.237000000    -3.167000000     6.891000000
C     1.422000000    -2.097000000     5.996000000
O     1.893000000    -3.103000000     5.286000000
C     1.304000000    -3.679000000     4.266000000
C     1.837000000    -4.796000000     3.727000000
H     2.828000000    -5.156000000     3.991000000
C     1.217000000    -5.534000000     2.698000000
O     1.936000000    -6.527000000     2.052000000
C     1.787000000    -6.932000000     0.767000000
C     2.535000000    -6.250000000    -0.231000000
H     3.245000000    -5.494000000     0.094000000
C     0.849000000    -7.813000000     0.301000000
H     0.137000000    -8.284000000     0.973000000
C     0.835000000    -8.203000000    -1.075000000
H     0.067000000    -8.913000000    -1.370000000
C     1.617000000    -7.537000000    -2.001000000
H     1.497000000    -7.741000000    -3.061000000
C     2.478000000    -6.535000000    -1.603000000
O     3.275000000    -5.872000000    -2.482000000
C     2.910000000    -4.615000000    -2.954000000
C     3.867000000    -3.822000000    -3.421000000
H     4.907000000    -4.130000000    -3.345000000
C     3.525000000    -2.573000000    -3.881000000
O     4.540000000    -1.656000000    -4.225000000
C     4.287000000    -0.420000000    -4.872000000
C     3.693000000    -0.421000000    -6.199000000
H     3.468000000    -1.344000000    -6.729000000
C     3.234000000     0.747000000    -6.799000000
H     2.708000000     0.792000000    -7.750000000
C     3.472000000     1.981000000    -6.166000000
H     3.221000000     2.949000000    -6.592000000
C     4.054000000     2.007000000    -4.876000000
C     4.394000000     0.816000000    -4.205000000
H     5.053000000     0.804000000    -3.341000000
C     1.694000000    -1.352000000     0.517000000
H     2.397000000    -2.152000000     0.736000000
C     0.449000000    -1.709000000     0.016000000
H     0.237000000    -2.774000000    -0.036000000
C    -0.528000000    -0.693000000    -0.109000000
H    -1.528000000    -0.902000000    -0.493000000
C    -0.214000000     0.650000000     0.153000000
H    -0.871000000     1.496000000    -0.031000000
C     1.076000000     0.935000000     0.596000000
H     1.284000000     1.959000000     0.898000000
C     2.043000000    -0.056000000     0.850000000
C     3.408000000     0.324000000     1.410000000
O     3.697000000     1.438000000     1.750000000
O     4.241000000    -0.553000000     1.537000000
O     7.787000000     4.196000000     5.515000000
H     7.498000000     4.200000000     4.603000000
H     7.224000000     4.839000000     5.947000000
O     5.543000000     3.359000000     0.572000000
H     4.971000000     3.783000000    -0.068000000
H     5.009000000     2.655000000     0.941000000
O     6.056000000    -4.612000000    -0.047000000
H     6.533000000    -4.705000000    -0.871000000
H     5.429000000    -3.908000000    -0.210000000
O     5.402000000    -5.037000000     4.299000000
H     5.304000000    -4.188000000     3.867000000
H     4.741000000    -5.030000000     4.992000000
O     5.550000000    -1.679000000     5.755000000
H     6.369000000    -1.194000000     5.650000000
H     5.457000000    -2.172000000     4.940000000
O     6.854000000     3.949000000     2.904000000
H     6.288000000     3.821000000     2.143000000
H     7.629000000     3.418000000     2.718000000
O     7.006000000     0.518000000    -1.988000000
H     7.156000000    -0.394000000    -1.737000000
H     7.810000000     0.777000000    -2.438000000
O     4.953000000     5.304000000     4.291000000
H     5.443000000     5.915000000     3.740000000
H     5.246000000     4.438000000     4.007000000
O     4.937000000    -2.201000000    -0.376000000
H     4.647000000    -1.636000000     0.341000000
H     5.508000000    -1.644000000    -0.904000000
O     8.062000000    -2.006000000    -1.093000000
H     7.693000000    -2.847000000    -0.825000000
H     8.831000000    -2.237000000    -1.614000000
O     5.047000000    -2.684000000     3.018000000
H     5.799000000    -2.818000000     2.442000000
H     4.596000000    -1.923000000     2.651000000
O     3.614000000    -4.792000000     6.450000000
H     4.196000000    -4.287000000     7.018000000
H     3.038000000    -4.137000000     6.055000000
O     9.668000000     2.956000000     3.572000000
H    10.567000000     2.767000000     3.304000000
H     9.213000000     2.118000000     3.492000000
O     6.899000000     0.071000000     1.027000000
H     6.765000000     0.105000000     0.080000000
H     6.022000000    -0.059000000     1.389000000
O     4.505000000     2.438000000     4.152000000
H     4.403000000     1.942000000     3.340000000
H     3.611000000     2.662000000     4.410000000
O     7.912000000    -0.569000000     5.371000000
H     8.635000000    -1.182000000     5.503000000
H     8.074000000    -0.191000000     4.506000000
O     8.733000000     0.427000000     3.031000000
H     9.215000000    -0.382000000     2.857000000
H     8.163000000     0.535000000     2.269000000
O     4.137000000     1.358000000     8.042000000
H     4.724000000     1.961000000     7.587000000
H     3.605000000     0.971000000     7.346000000
O     8.389000000     3.041000000    -1.083000000
H     7.519000000     2.842000000    -0.737000000
H     8.330000000     2.832000000    -2.015000000
