215
-1442.03094
C    -1.029000000     0.960000000     5.600000000
H    -1.621000000     0.049000000     5.610000000
C    -1.299000000     1.907000000     4.634000000
C    -0.532000000     3.079000000     4.589000000
H    -0.608000000     3.818000000     3.796000000
C    -2.393000000     1.731000000     3.542000000
O    -3.338000000     0.733000000     3.991000000
H    -1.948000000     1.305000000     2.631000000
O    -3.051000000     2.927000000     3.145000000
C    -3.329000000     3.018000000     1.797000000
C    -2.406000000     3.809000000     1.132000000
H    -1.568000000     4.337000000     1.579000000
C    -2.550000000     3.910000000    -0.249000000
O    -1.448000000     4.498000000    -0.886000000
C    -3.578000000     3.306000000    -0.956000000
C    -3.704000000     3.329000000    -2.482000000
H    -4.773000000     3.184000000    -2.651000000
C    -2.886000000     2.252000000    -3.175000000
C    -3.444000000     0.970000000    -3.428000000
H    -4.467000000     0.799000000    -3.105000000
H    -3.364000000     4.328000000    -2.764000000
C    -4.406000000     2.459000000    -0.240000000
H    -5.105000000     1.853000000    -0.812000000
C    -4.312000000     2.287000000     1.145000000
C    -5.277000000     1.380000000     1.923000000
H    -6.213000000     1.125000000     1.421000000
H    -5.430000000     1.843000000     2.900000000
C    -4.657000000    -0.013000000     2.054000000
C    -4.992000000    -0.984000000     1.100000000
H    -5.664000000    -0.706000000     0.292000000
C    -3.689000000    -0.273000000     3.044000000
C    -3.007000000    -1.500000000     3.029000000
H    -2.208000000    -1.689000000     3.741000000
C    -3.429000000    -2.505000000     2.170000000
O    -2.619000000    -3.596000000     2.168000000
C    -1.653000000    -3.734000000     1.063000000
C    -0.236000000    -4.166000000     1.574000000
C     0.571000000    -5.076000000     0.860000000
H     0.212000000    -5.667000000     0.022000000
C     0.258000000    -3.494000000     2.736000000
H    -0.239000000    -2.626000000     3.162000000
O    -2.178000000    -4.626000000     0.042000000
H    -1.472000000    -2.730000000     0.650000000
C    -4.433000000    -2.281000000     1.199000000
C    -4.672000000    -3.288000000    -0.011000000
H    -5.723000000    -3.123000000    -0.258000000
H    -4.702000000    -4.298000000     0.401000000
C    -3.716000000    -3.187000000    -1.175000000
C    -3.886000000    -2.319000000    -2.211000000
H    -4.883000000    -1.889000000    -2.262000000
C    -2.623000000    -4.019000000    -1.123000000
C    -1.653000000    -3.902000000    -2.081000000
H    -0.723000000    -4.464000000    -2.057000000
C    -1.686000000    -2.893000000    -3.066000000
O    -0.595000000    -2.708000000    -3.904000000
C     0.132000000    -1.471000000    -3.766000000
C     1.609000000    -1.704000000    -3.820000000
C     2.173000000    -2.947000000    -3.543000000
H     1.579000000    -3.837000000    -3.349000000
C     2.495000000    -0.599000000    -4.165000000
H     2.125000000     0.379000000    -4.461000000
O    -0.368000000    -0.569000000    -4.816000000
H    -0.075000000    -0.981000000    -2.803000000
C    -2.928000000    -2.179000000    -3.219000000
C    -3.267000000    -1.244000000    -4.339000000
H    -4.348000000    -1.095000000    -4.371000000
H    -2.988000000    -1.536000000    -5.354000000
C    -2.639000000     0.080000000    -4.088000000
C    -1.295000000     0.357000000    -4.455000000
C    -0.888000000     1.675000000    -4.336000000
H     0.162000000     1.922000000    -4.466000000
C    -1.579000000     2.565000000    -3.563000000
O    -0.967000000     3.752000000    -3.102000000
C    -0.552000000     3.699000000    -1.703000000
H    -0.592000000     2.626000000    -1.464000000
C     0.845000000     4.191000000    -1.506000000
C     1.450000000     4.095000000    -0.242000000
H     0.837000000     3.772000000     0.596000000
C     1.638000000     4.412000000    -2.645000000
H     1.383000000     4.144000000    -3.667000000
C     2.951000000     4.651000000    -2.468000000
O     3.828000000     4.886000000    -3.501000000
C     3.560000000     4.552000000    -1.234000000
H     4.632000000     4.732000000    -1.207000000
C     2.769000000     4.253000000    -0.138000000
O     3.257000000     4.371000000     1.088000000
C     2.660000000     5.052000000     2.133000000
C     2.287000000     4.398000000     3.282000000
H     2.696000000     3.414000000     3.495000000
C     2.296000000     6.392000000     1.997000000
H     2.730000000     6.979000000     1.192000000
C     1.529000000     7.028000000     2.978000000
H     1.392000000     8.087000000     2.774000000
C     1.125000000     6.388000000     4.137000000
H     0.467000000     6.911000000     4.827000000
C     1.542000000     5.088000000     4.267000000
O     1.367000000     4.436000000     5.480000000
C     0.486000000     3.303000000     5.509000000
C     0.727000000     2.373000000     6.491000000
H     1.445000000     2.487000000     7.299000000
C    -0.031000000     1.197000000     6.507000000
O     0.337000000     0.123000000     7.366000000
C     0.529000000    -1.112000000     6.834000000
C     1.315000000    -1.476000000     5.712000000
H     1.943000000    -0.774000000     5.169000000
C     0.002000000    -2.202000000     7.549000000
H    -0.705000000    -1.983000000     8.345000000
C     0.133000000    -3.546000000     7.195000000
H    -0.314000000    -4.250000000     7.892000000
C     0.870000000    -3.858000000     6.047000000
H     1.075000000    -4.905000000     5.838000000
C     1.465000000    -2.836000000     5.340000000
O     2.103000000    -3.155000000     4.155000000
C     1.539000000    -3.846000000     3.129000000
C     2.394000000    -4.731000000     2.467000000
H     3.383000000    -4.902000000     2.883000000
C     1.868000000    -5.403000000     1.373000000
O     2.658000000    -6.261000000     0.720000000
C     2.730000000    -6.256000000    -0.679000000
C     3.346000000    -5.250000000    -1.350000000
H     3.718000000    -4.411000000    -0.766000000
C     2.139000000    -7.291000000    -1.346000000
H     1.609000000    -8.045000000    -0.769000000
C     2.442000000    -7.449000000    -2.755000000
H     2.185000000    -8.388000000    -3.238000000
C     3.229000000    -6.472000000    -3.397000000
H     3.462000000    -6.476000000    -4.459000000
C     3.583000000    -5.359000000    -2.684000000
O     4.125000000    -4.357000000    -3.430000000
C     3.597000000    -3.089000000    -3.531000000
C     4.460000000    -1.991000000    -3.867000000
H     5.534000000    -2.108000000    -3.984000000
C     3.905000000    -0.790000000    -4.122000000
O     4.717000000     0.293000000    -4.389000000
C     4.439000000     1.531000000    -4.835000000
C     4.831000000     1.824000000    -6.134000000
H     5.108000000     0.991000000    -6.775000000
C     4.796000000     3.113000000    -6.648000000
H     5.158000000     3.229000000    -7.666000000
C     4.409000000     4.138000000    -5.803000000
H     4.432000000     5.186000000    -6.088000000
C     4.038000000     3.866000000    -4.468000000
C     4.094000000     2.540000000    -4.021000000
H     3.982000000     2.266000000    -2.975000000
C     2.023000000    -1.740000000     0.605000000
H     2.633000000    -2.637000000     0.534000000
C     0.949000000    -1.649000000    -0.271000000
H     0.766000000    -2.356000000    -1.076000000
C     0.107000000    -0.523000000    -0.063000000
H    -0.720000000    -0.329000000    -0.696000000
C     0.267000000     0.356000000     0.992000000
H    -0.422000000     1.192000000     1.081000000
C     1.357000000     0.256000000     1.747000000
H     1.594000000     0.995000000     2.508000000
C     2.296000000    -0.716000000     1.497000000
C     3.549000000    -0.743000000     2.375000000
O     3.797000000    -0.027000000     3.317000000
O     4.504000000    -1.390000000     1.908000000
O     5.735000000    -5.216000000     2.233000000
H     6.072000000    -5.008000000     1.361000000
H     5.371000000    -6.097000000     2.145000000
O     4.337000000     0.866000000    -0.148000000
H     4.220000000     0.332000000     0.638000000
H     3.501000000     0.799000000    -0.610000000
O     8.810000000    -2.522000000    -1.167000000
H     9.039000000    -2.119000000    -0.330000000
H     7.967000000    -2.131000000    -1.398000000
O     8.799000000    -2.025000000     1.726000000
H     9.619000000    -2.294000000     2.140000000
H     9.013000000    -1.206000000     1.280000000
O     4.091000000    -5.135000000     5.468000000
H     3.494000000    -4.459000000     5.145000000
H     4.963000000    -4.808000000     5.249000000
O     6.710000000    -0.548000000    -1.107000000
H     6.489000000    -0.867000000    -1.982000000
H     6.000000000     0.054000000    -0.885000000
O     5.903000000    -2.914000000     0.150000000
H     5.431000000    -2.635000000     0.935000000
H     6.055000000    -2.104000000    -0.338000000
O     8.715000000     2.104000000     2.650000000
H     8.026000000     1.803000000     2.057000000
H     9.430000000     1.481000000     2.521000000
O     7.059000000    -4.999000000     5.992000000
H     6.898000000    -4.056000000     5.952000000
H     7.648000000    -5.172000000     5.258000000
O     9.229000000     0.197000000    -0.095000000
H     8.290000000     0.030000000    -0.179000000
H     9.427000000     0.809000000    -0.804000000
O     5.474000000    -3.095000000     3.622000000
H     5.484000000    -3.852000000     3.036000000
H     4.892000000    -2.468000000     3.193000000
O     5.262000000     2.642000000     3.203000000
H     5.396000000     2.877000000     2.285000000
H     5.042000000     1.710000000     3.182000000
O     6.744000000     0.123000000     1.931000000
H     7.429000000    -0.544000000     1.980000000
H     5.926000000    -0.366000000     2.021000000
O     7.693000000    -4.818000000    -0.037000000
H     8.615000000    -4.623000000     0.133000000
H     7.284000000    -3.960000000    -0.147000000
O     5.028000000    -0.207000000     5.876000000
H     4.412000000    -0.173000000     5.144000000
H     4.551000000     0.183000000     6.608000000
O     6.693000000    -2.287000000     5.818000000
H     6.244000000    -2.583000000     5.026000000
H     6.320000000    -1.423000000     5.997000000
O     7.395000000     0.978000000     4.943000000
H     6.462000000     0.769000000     5.004000000
H     7.493000000     1.386000000     4.083000000
O     8.099000000    -4.087000000     3.512000000
H     7.182000000    -3.829000000     3.603000000
H     8.367000000    -3.729000000     2.666000000
O     6.413000000     2.805000000     0.043000000
H     5.720000000     2.145000000     0.047000000
H     6.793000000     2.748000000    -0.833000000
