215
-1432.24576
C     0.089000000     2.073000000     5.006000000
H    -0.788000000     1.541000000     5.366000000
C    -0.034000000     2.834000000     3.884000000
C     1.112000000     3.557000000     3.455000000
H     1.116000000     4.278000000     2.642000000
C    -1.347000000     2.814000000     3.103000000
O    -2.417000000     2.148000000     3.774000000
H    -1.174000000     2.160000000     2.236000000
O    -1.742000000     4.106000000     2.664000000
C    -2.167000000     4.130000000     1.362000000
C    -1.233000000     4.576000000     0.464000000
H    -0.307000000     5.007000000     0.838000000
C    -1.471000000     4.458000000    -0.864000000
O    -0.354000000     4.649000000    -1.679000000
C    -2.662000000     4.017000000    -1.374000000
C    -2.880000000     3.832000000    -2.881000000
H    -3.938000000     3.913000000    -3.139000000
C    -2.347000000     2.504000000    -3.410000000
C    -3.179000000     1.396000000    -3.536000000
H    -4.231000000     1.604000000    -3.357000000
H    -2.385000000     4.647000000    -3.413000000
C    -3.675000000     3.663000000    -0.474000000
H    -4.634000000     3.388000000    -0.904000000
C    -3.424000000     3.637000000     0.907000000
C    -4.451000000     2.976000000     1.869000000
H    -5.370000000     3.016000000     1.280000000
H    -4.566000000     3.535000000     2.800000000
C    -4.132000000     1.516000000     2.082000000
C    -4.889000000     0.472000000     1.463000000
H    -5.666000000     0.722000000     0.746000000
C    -3.170000000     1.168000000     3.062000000
C    -2.934000000    -0.176000000     3.340000000
H    -2.237000000    -0.469000000     4.121000000
C    -3.517000000    -1.188000000     2.629000000
O    -3.005000000    -2.410000000     2.804000000
C    -2.248000000    -3.100000000     1.800000000
C    -1.085000000    -3.935000000     2.443000000
C    -0.667000000    -5.076000000     1.782000000
H    -1.110000000    -5.382000000     0.837000000
C    -0.292000000    -3.375000000     3.474000000
H    -0.500000000    -2.351000000     3.775000000
O    -3.107000000    -3.895000000     0.907000000
H    -1.644000000    -2.309000000     1.331000000
C    -4.499000000    -0.843000000     1.659000000
C    -5.166000000    -1.963000000     0.872000000
H    -6.130000000    -1.641000000     0.471000000
H    -5.347000000    -2.850000000     1.482000000
C    -4.370000000    -2.357000000    -0.320000000
C    -4.382000000    -1.558000000    -1.474000000
H    -5.236000000    -0.899000000    -1.602000000
C    -3.394000000    -3.352000000    -0.283000000
C    -2.518000000    -3.519000000    -1.330000000
H    -1.703000000    -4.212000000    -1.139000000
C    -2.581000000    -2.749000000    -2.459000000
O    -1.754000000    -3.120000000    -3.444000000
C    -0.678000000    -2.216000000    -3.584000000
C     0.679000000    -2.933000000    -3.699000000
C     0.948000000    -4.035000000    -2.921000000
H     0.192000000    -4.647000000    -2.435000000
C     1.692000000    -2.338000000    -4.446000000
H     1.465000000    -1.523000000    -5.128000000
O    -0.979000000    -1.288000000    -4.626000000
H    -0.662000000    -1.535000000    -2.720000000
C    -3.526000000    -1.768000000    -2.505000000
C    -3.763000000    -1.054000000    -3.835000000
H    -4.814000000    -0.784000000    -3.958000000
H    -3.499000000    -1.785000000    -4.603000000
C    -2.801000000     0.104000000    -3.982000000
C    -1.485000000    -0.006000000    -4.359000000
C    -0.613000000     1.085000000    -4.247000000
H     0.466000000     1.011000000    -4.357000000
C    -1.030000000     2.281000000    -3.738000000
O    -0.158000000     3.313000000    -3.659000000
C     0.359000000     3.583000000    -2.369000000
H     0.249000000     2.618000000    -1.853000000
C     1.866000000     3.763000000    -2.313000000
C     2.432000000     4.757000000    -1.562000000
H     1.795000000     5.429000000    -0.992000000
C     2.653000000     2.739000000    -2.871000000
H     2.128000000     1.907000000    -3.334000000
C     4.011000000     2.793000000    -2.666000000
O     4.913000000     1.787000000    -3.150000000
C     4.592000000     3.766000000    -1.872000000
H     5.658000000     3.950000000    -1.763000000
C     3.770000000     4.754000000    -1.317000000
O     4.274000000     5.703000000    -0.557000000
C     3.859000000     5.925000000     0.715000000
C     3.874000000     4.950000000     1.684000000
H     4.299000000     3.965000000     1.513000000
C     3.284000000     7.170000000     1.066000000
H     3.197000000     7.963000000     0.328000000
C     2.887000000     7.420000000     2.388000000
H     2.558000000     8.422000000     2.648000000
C     2.962000000     6.421000000     3.337000000
H     2.547000000     6.575000000     4.330000000
C     3.411000000     5.163000000     2.992000000
O     3.429000000     4.157000000     3.942000000
C     2.259000000     3.498000000     4.267000000
C     2.378000000     2.615000000     5.306000000
H     3.281000000     2.463000000     5.892000000
C     1.280000000     1.856000000     5.670000000
O     1.435000000     1.006000000     6.724000000
C     0.877000000    -0.235000000     6.633000000
C     1.506000000    -1.229000000     5.896000000
H     2.338000000    -0.994000000     5.238000000
C    -0.207000000    -0.608000000     7.389000000
H    -0.758000000     0.137000000     7.958000000
C    -0.698000000    -1.914000000     7.416000000
H    -1.548000000    -2.128000000     8.057000000
C    -0.099000000    -2.895000000     6.579000000
H    -0.441000000    -3.926000000     6.597000000
C     1.011000000    -2.572000000     5.897000000
O     1.556000000    -3.538000000     5.049000000
C     0.809000000    -4.055000000     4.008000000
C     1.190000000    -5.264000000     3.454000000
H     2.060000000    -5.790000000     3.839000000
C     0.411000000    -5.780000000     2.313000000
O     0.827000000    -6.949000000     1.750000000
C     0.861000000    -7.108000000     0.424000000
C     1.673000000    -6.314000000    -0.405000000
H     2.405000000    -5.629000000     0.016000000
C     0.003000000    -8.040000000    -0.190000000
H    -0.704000000    -8.592000000     0.424000000
C    -0.020000000    -8.206000000    -1.530000000
H    -0.693000000    -8.867000000    -2.071000000
C     0.802000000    -7.415000000    -2.362000000
H     0.734000000    -7.498000000    -3.444000000
C     1.714000000    -6.577000000    -1.738000000
O     2.588000000    -5.765000000    -2.394000000
C     2.265000000    -4.607000000    -2.987000000
C     3.267000000    -3.968000000    -3.696000000
H     4.247000000    -4.421000000    -3.826000000
C     2.959000000    -2.861000000    -4.521000000
O     3.899000000    -2.306000000    -5.349000000
C     4.042000000    -0.897000000    -5.446000000
C     4.027000000    -0.290000000    -6.679000000
H     3.835000000    -0.764000000    -7.638000000
C     4.397000000     1.063000000    -6.744000000
H     4.631000000     1.611000000    -7.653000000
C     4.603000000     1.762000000    -5.579000000
H     4.768000000     2.832000000    -5.669000000
C     4.649000000     1.139000000    -4.358000000
C     4.354000000    -0.262000000    -4.292000000
H     4.491000000    -0.865000000    -3.397000000
C     2.076000000    -1.512000000    -0.139000000
H     2.660000000    -2.419000000    -0.277000000
C     0.734000000    -1.557000000    -0.071000000
H     0.244000000    -2.522000000    -0.166000000
C    -0.017000000    -0.454000000     0.075000000
H    -1.090000000    -0.520000000     0.268000000
C     0.588000000     0.811000000     0.151000000
H     0.010000000     1.722000000     0.278000000
C     2.001000000     0.878000000     0.075000000
H     2.479000000     1.846000000     0.203000000
C     2.739000000    -0.281000000     0.069000000
C     4.233000000    -0.198000000     0.037000000
O     4.687000000     0.843000000     0.493000000
O     4.929000000    -1.181000000    -0.017000000
O     8.100000000     0.251000000     4.229000000
H     7.547000000    -0.197000000     3.590000000
H     7.699000000     1.115000000     4.329000000
O     7.536000000     1.868000000    -2.155000000
H     8.099000000     1.182000000    -1.798000000
H     6.710000000     1.425000000    -2.347000000
O     4.424000000     0.465000000     3.067000000
H     4.188000000     1.379000000     3.228000000
H     4.596000000     0.424000000     2.127000000
O     5.745000000    -1.580000000     4.252000000
H     6.288000000    -1.999000000     3.586000000
H     5.367000000    -0.820000000     3.810000000
O     8.204000000     4.342000000    -0.948000000
H     8.942000000     4.048000000    -0.414000000
H     8.086000000     3.648000000    -1.596000000
O     6.942000000     2.848000000     3.877000000
H     6.745000000     3.777000000     3.995000000
H     6.810000000     2.693000000     2.941000000
O     4.823000000    -5.296000000     0.392000000
H     4.634000000    -4.488000000     0.869000000
H     5.233000000    -5.003000000    -0.422000000
O    10.388000000     2.362000000    -0.404000000
H     9.956000000     2.081000000    -1.210000000
H    10.148000000     1.696000000     0.241000000
O     6.392000000    -5.991000000    -2.084000000
H     5.755000000    -5.288000000    -1.952000000
H     6.818000000    -5.775000000    -2.913000000
O     9.897000000    -0.140000000    -1.630000000
H     9.501000000    -1.010000000    -1.583000000
H    10.837000000    -0.308000000    -1.699000000
O     5.622000000    -3.210000000    -1.391000000
H     5.492000000    -2.493000000    -0.771000000
H     6.475000000    -3.030000000    -1.789000000
O     7.102000000    -1.540000000    -5.630000000
H     7.121000000    -1.064000000    -6.461000000
H     6.171000000    -1.633000000    -5.429000000
O     6.490000000     2.411000000     1.281000000
H     5.944000000     1.661000000     1.047000000
H     6.952000000     2.632000000     0.472000000
O     4.565000000    -3.075000000     1.932000000
H     3.730000000    -2.914000000     2.372000000
H     4.647000000    -2.358000000     1.304000000
O     8.853000000     2.639000000    -4.518000000
H     8.433000000     2.120000000    -3.832000000
H     8.457000000     3.507000000    -4.437000000
O     9.764000000     0.306000000     1.403000000
H     9.086000000    -0.250000000     1.786000000
H    10.106000000    -0.205000000     0.669000000
O     4.645000000    -4.689000000     4.808000000
H     4.411000000    -5.547000000     4.453000000
H     4.749000000    -4.131000000     4.038000000
O     7.333000000    -1.413000000     1.566000000
H     6.504000000    -1.237000000     1.123000000
H     7.725000000    -2.129000000     1.066000000
O     8.404000000    -2.950000000    -1.124000000
H     8.801000000    -2.955000000    -1.995000000
H     8.112000000    -3.851000000    -0.988000000
