215
-1447.99559
C    -0.113000000     1.444000000     5.133000000
H    -0.977000000     0.830000000     5.376000000
C    -0.120000000     2.108000000     3.894000000
C     1.022000000     2.783000000     3.449000000
H     1.039000000     3.251000000     2.468000000
C    -1.395000000     2.335000000     3.121000000
O    -2.636000000     1.990000000     3.821000000
H    -1.349000000     1.755000000     2.188000000
O    -1.698000000     3.670000000     2.604000000
C    -2.030000000     3.923000000     1.347000000
C    -1.088000000     4.452000000     0.496000000
H    -0.142000000     4.851000000     0.852000000
C    -1.325000000     4.350000000    -0.883000000
O    -0.304000000     4.533000000    -1.700000000
C    -2.508000000     3.811000000    -1.374000000
C    -2.791000000     3.793000000    -2.915000000
H    -3.875000000     3.906000000    -2.986000000
C    -2.449000000     2.413000000    -3.615000000
C    -3.338000000     1.312000000    -3.775000000
H    -4.336000000     1.318000000    -3.344000000
H    -2.388000000     4.629000000    -3.492000000
C    -3.506000000     3.424000000    -0.508000000
H    -4.417000000     2.971000000    -0.890000000
C    -3.240000000     3.422000000     0.856000000
C    -4.380000000     3.074000000     1.780000000
H    -5.309000000     3.249000000     1.234000000
H    -4.342000000     3.761000000     2.628000000
C    -4.198000000     1.577000000     2.115000000
C    -4.916000000     0.626000000     1.300000000
H    -5.585000000     1.058000000     0.561000000
C    -3.426000000     1.071000000     3.157000000
C    -3.324000000    -0.286000000     3.371000000
H    -2.737000000    -0.653000000     4.209000000
C    -3.888000000    -1.181000000     2.463000000
O    -3.548000000    -2.491000000     2.650000000
C    -2.544000000    -2.906000000     1.694000000
C    -1.337000000    -3.440000000     2.483000000
C    -0.177000000    -3.823000000     1.802000000
H    -0.314000000    -3.848000000     0.724000000
C    -1.195000000    -3.324000000     3.871000000
H    -2.054000000    -3.041000000     4.474000000
O    -2.977000000    -3.860000000     0.652000000
H    -2.141000000    -2.060000000     1.117000000
C    -4.667000000    -0.750000000     1.415000000
C    -5.326000000    -1.782000000     0.499000000
H    -6.259000000    -1.329000000     0.158000000
H    -5.644000000    -2.626000000     1.114000000
C    -4.423000000    -2.272000000    -0.660000000
C    -4.601000000    -1.743000000    -1.880000000
H    -5.443000000    -1.067000000    -2.006000000
C    -3.355000000    -3.237000000    -0.472000000
C    -2.591000000    -3.576000000    -1.569000000
H    -1.754000000    -4.268000000    -1.520000000
C    -2.757000000    -2.938000000    -2.816000000
O    -1.855000000    -3.241000000    -3.798000000
C    -0.830000000    -2.238000000    -4.063000000
C     0.535000000    -2.860000000    -4.300000000
C     1.002000000    -3.941000000    -3.501000000
H     0.345000000    -4.299000000    -2.712000000
C     1.501000000    -2.251000000    -5.090000000
H     1.368000000    -1.264000000    -5.526000000
O    -1.224000000    -1.259000000    -5.086000000
H    -0.735000000    -1.614000000    -3.162000000
C    -3.761000000    -1.964000000    -2.998000000
C    -3.952000000    -1.068000000    -4.289000000
H    -4.975000000    -0.709000000    -4.416000000
H    -3.724000000    -1.643000000    -5.190000000
C    -2.968000000     0.064000000    -4.282000000
C    -1.637000000    -0.080000000    -4.607000000
C    -0.735000000     0.944000000    -4.440000000
H     0.271000000     0.772000000    -4.815000000
C    -1.155000000     2.193000000    -3.992000000
O    -0.226000000     3.241000000    -3.779000000
C     0.279000000     3.372000000    -2.356000000
H    -0.003000000     2.522000000    -1.717000000
C     1.816000000     3.433000000    -2.293000000
C     2.459000000     4.241000000    -1.308000000
H     1.963000000     4.997000000    -0.704000000
C     2.621000000     2.630000000    -3.114000000
H     2.159000000     1.899000000    -3.773000000
C     3.999000000     2.720000000    -3.087000000
O     4.829000000     1.971000000    -3.881000000
C     4.622000000     3.612000000    -2.197000000
H     5.696000000     3.707000000    -2.333000000
C     3.870000000     4.360000000    -1.316000000
O     4.519000000     5.175000000    -0.386000000
C     4.079000000     5.285000000     0.923000000
C     4.048000000     4.124000000     1.710000000
H     4.474000000     3.209000000     1.308000000
C     3.739000000     6.502000000     1.447000000
H     3.781000000     7.383000000     0.811000000
C     3.245000000     6.682000000     2.712000000
H     2.934000000     7.653000000     3.087000000
C     3.129000000     5.515000000     3.521000000
H     2.650000000     5.619000000     4.492000000
C     3.542000000     4.233000000     3.006000000
O     3.443000000     3.159000000     3.756000000
C     2.175000000     2.752000000     4.237000000
C     2.137000000     2.107000000     5.424000000
H     3.052000000     2.069000000     6.010000000
C     1.046000000     1.432000000     5.881000000
O     1.007000000     0.833000000     7.089000000
C     0.666000000    -0.491000000     7.354000000
C     0.492000000    -1.489000000     6.381000000
H     0.793000000    -1.278000000     5.359000000
C     0.476000000    -0.756000000     8.667000000
H     0.582000000     0.025000000     9.416000000
C     0.137000000    -2.032000000     9.140000000
H     0.027000000    -2.252000000    10.199000000
C    -0.103000000    -3.017000000     8.138000000
H    -0.346000000    -4.052000000     8.366000000
C     0.068000000    -2.740000000     6.820000000
O     0.026000000    -3.774000000     5.958000000
C     0.027000000    -3.611000000     4.605000000
C     1.146000000    -4.029000000     3.851000000
H     2.034000000    -4.283000000     4.423000000
C     1.032000000    -4.151000000     2.488000000
O     2.077000000    -4.645000000     1.830000000
C     1.966000000    -5.480000000     0.765000000
C     2.487000000    -5.143000000    -0.481000000
H     3.089000000    -4.245000000    -0.596000000
C     1.362000000    -6.715000000     0.903000000
H     1.117000000    -7.171000000     1.859000000
C     1.029000000    -7.427000000    -0.261000000
H     0.634000000    -8.438000000    -0.207000000
C     1.334000000    -6.916000000    -1.513000000
H     1.230000000    -7.422000000    -2.469000000
C     2.074000000    -5.795000000    -1.641000000
O     2.745000000    -5.481000000    -2.826000000
C     2.276000000    -4.434000000    -3.591000000
C     3.198000000    -3.802000000    -4.408000000
H     4.236000000    -4.123000000    -4.419000000
C     2.815000000    -2.753000000    -5.245000000
O     3.710000000    -2.188000000    -6.123000000
C     3.910000000    -0.785000000    -6.176000000
C     3.839000000    -0.128000000    -7.424000000
H     3.443000000    -0.654000000    -8.289000000
C     3.834000000     1.280000000    -7.433000000
H     3.599000000     1.849000000    -8.328000000
C     4.106000000     1.954000000    -6.248000000
H     4.284000000     3.024000000    -6.317000000
C     4.454000000     1.282000000    -5.039000000
C     4.305000000    -0.124000000    -4.986000000
H     4.414000000    -0.748000000    -4.102000000
C     2.534000000    -0.969000000    -0.727000000
H     3.150000000    -1.707000000    -1.234000000
C     1.175000000    -1.053000000    -1.059000000
H     0.717000000    -1.682000000    -1.819000000
C     0.321000000    -0.121000000    -0.552000000
H    -0.746000000    -0.169000000    -0.817000000
C     0.805000000     0.834000000     0.342000000
H     0.104000000     1.539000000     0.781000000
C     2.167000000     0.934000000     0.633000000
H     2.438000000     1.715000000     1.340000000
C     3.103000000     0.073000000     0.041000000
C     4.602000000     0.194000000     0.210000000
O     5.073000000     1.028000000     0.990000000
O     5.327000000    -0.710000000    -0.222000000
O     6.778000000     0.031000000     4.044000000
H     6.662000000     0.938000000     4.327000000
H     5.888000000    -0.313000000     3.972000000
O     7.114000000     2.459000000     0.554000000
H     6.317000000     1.950000000     0.699000000
H     7.790000000     1.990000000     1.043000000
O     4.156000000    -2.904000000     1.960000000
H     3.415000000    -3.495000000     2.088000000
H     4.594000000    -3.235000000     1.176000000
O     4.715000000    -3.781000000     4.857000000
H     4.337000000    -4.659000000     4.910000000
H     4.894000000    -3.654000000     3.925000000
O     7.036000000     4.974000000     1.259000000
H     7.137000000     4.079000000     0.936000000
H     6.234000000     5.290000000     0.843000000
O     6.797000000     3.197000000     3.992000000
H     6.501000000     3.449000000     3.117000000
H     7.654000000     2.796000000     3.848000000
O     5.610000000    -3.335000000    -0.308000000
H     5.479000000    -2.389000000    -0.373000000
H     5.833000000    -3.607000000    -1.197000000
O     4.070000000    -1.240000000     5.589000000
H     4.283000000    -0.864000000     4.735000000
H     4.298000000    -2.166000000     5.506000000
O     6.471000000    -4.231000000    -3.009000000
H     6.143000000    -5.118000000    -3.158000000
H     6.955000000    -4.017000000    -3.807000000
O     9.438000000    -3.143000000     3.620000000
H     8.802000000    -2.932000000     2.936000000
H     9.484000000    -4.099000000     3.618000000
O    10.681000000     0.170000000     0.346000000
H     9.870000000    -0.306000000     0.524000000
H    10.399000000     0.961000000    -0.113000000
O     6.866000000     1.206000000    -1.744000000
H     6.295000000     0.485000000    -1.479000000
H     7.120000000     1.625000000    -0.922000000
O     4.435000000    -0.557000000     2.978000000
H     4.122000000    -1.368000000     2.577000000
H     4.652000000     0.009000000     2.237000000
O     9.274000000    -0.751000000     4.638000000
H     9.320000000    -1.685000000     4.434000000
H     8.411000000    -0.479000000     4.326000000
O     7.864000000    -0.537000000     1.024000000
H     7.814000000    -1.458000000     1.280000000
H     6.960000000    -0.296000000     0.821000000
O     8.435000000    -0.079000000    -3.976000000
H     7.966000000     0.345000000    -3.257000000
H     9.011000000    -0.711000000    -3.546000000
O     8.179000000     2.836000000    -3.474000000
H     8.328000000     2.070000000    -4.029000000
H     7.465000000     2.575000000    -2.892000000
O     7.959000000    -3.340000000     1.259000000
H     8.549000000    -3.661000000     0.577000000
H     7.149000000    -3.128000000     0.795000000
O     8.968000000     1.831000000     2.648000000
H     9.842000000     1.691000000     3.012000000
H     8.695000000     0.967000000     2.340000000
