215
-1462.70794
C    -0.316000000     0.133000000     6.028000000
H    -1.131000000    -0.568000000     5.865000000
C    -0.446000000     1.310000000     5.317000000
C     0.541000000     2.281000000     5.484000000
H     0.493000000     3.197000000     4.900000000
C    -1.413000000     1.471000000     4.154000000
O    -2.605000000     0.741000000     4.422000000
H    -0.905000000     1.069000000     3.265000000
O    -1.667000000     2.866000000     3.942000000
C    -1.857000000     3.257000000     2.606000000
C    -0.797000000     3.884000000     1.993000000
H     0.102000000     4.123000000     2.556000000
C    -0.914000000     4.238000000     0.612000000
O     0.234000000     4.684000000     0.022000000
C    -2.191000000     4.151000000    -0.013000000
C    -2.488000000     4.650000000    -1.426000000
H    -3.465000000     5.128000000    -1.516000000
C    -2.021000000     3.729000000    -2.558000000
C    -2.972000000     2.831000000    -3.013000000
H    -4.013000000     2.977000000    -2.738000000
H    -1.874000000     5.553000000    -1.422000000
C    -3.298000000     3.629000000     0.680000000
H    -4.237000000     3.568000000     0.136000000
C    -3.146000000     3.200000000     2.016000000
C    -4.275000000     2.451000000     2.746000000
H    -5.214000000     2.820000000     2.328000000
H    -4.217000000     2.752000000     3.794000000
C    -4.041000000     0.965000000     2.517000000
C    -4.569000000     0.406000000     1.356000000
H    -5.212000000     0.893000000     0.628000000
C    -3.239000000     0.180000000     3.310000000
C    -2.965000000    -1.147000000     2.987000000
H    -2.248000000    -1.703000000     3.585000000
C    -3.591000000    -1.747000000     1.849000000
O    -3.105000000    -3.028000000     1.528000000
C    -2.123000000    -3.137000000     0.422000000
C    -0.953000000    -4.041000000     0.797000000
C    -0.287000000    -4.725000000    -0.182000000
H    -0.484000000    -4.564000000    -1.239000000
C    -0.703000000    -4.114000000     2.143000000
H    -1.256000000    -3.528000000     2.873000000
O    -2.813000000    -3.532000000    -0.734000000
H    -1.678000000    -2.143000000     0.270000000
C    -4.495000000    -0.959000000     1.103000000
C    -5.136000000    -1.580000000    -0.178000000
H    -6.013000000    -1.013000000    -0.497000000
H    -5.517000000    -2.582000000     0.031000000
C    -4.232000000    -1.554000000    -1.397000000
C    -4.346000000    -0.464000000    -2.297000000
H    -5.135000000     0.256000000    -2.093000000
C    -3.304000000    -2.531000000    -1.616000000
C    -2.518000000    -2.439000000    -2.778000000
H    -1.632000000    -3.061000000    -2.873000000
C    -2.630000000    -1.391000000    -3.680000000
O    -1.757000000    -1.404000000    -4.718000000
C    -0.576000000    -0.540000000    -4.529000000
C     0.634000000    -1.204000000    -5.161000000
C     0.809000000    -2.596000000    -5.108000000
H     0.014000000    -3.151000000    -4.617000000
C     1.647000000    -0.519000000    -5.887000000
H     1.555000000     0.546000000    -6.087000000
O    -0.749000000     0.778000000    -5.082000000
H    -0.235000000    -0.361000000    -3.499000000
C    -3.488000000    -0.357000000    -3.433000000
C    -3.674000000     0.825000000    -4.345000000
H    -4.662000000     1.248000000    -4.147000000
H    -3.611000000     0.620000000    -5.415000000
C    -2.611000000     1.815000000    -3.915000000
C    -1.221000000     1.764000000    -4.350000000
C    -0.288000000     2.662000000    -3.933000000
H     0.761000000     2.564000000    -4.199000000
C    -0.692000000     3.610000000    -2.991000000
O     0.317000000     4.294000000    -2.316000000
C     0.673000000     3.795000000    -0.973000000
H     0.177000000     2.816000000    -0.890000000
C     2.187000000     3.523000000    -0.720000000
C     2.736000000     3.574000000     0.609000000
H     2.009000000     3.812000000     1.381000000
C     3.020000000     3.094000000    -1.757000000
H     2.581000000     2.975000000    -2.744000000
C     4.273000000     2.560000000    -1.447000000
O     4.952000000     1.850000000    -2.445000000
C     4.761000000     2.523000000    -0.139000000
H     5.684000000     1.992000000     0.079000000
C     4.034000000     3.118000000     0.858000000
O     4.551000000     2.977000000     2.186000000
C     4.043000000     3.684000000     3.273000000
C     3.715000000     3.054000000     4.440000000
H     3.799000000     1.973000000     4.507000000
C     3.837000000     5.057000000     3.134000000
H     4.086000000     5.496000000     2.171000000
C     3.192000000     5.743000000     4.173000000
H     3.117000000     6.822000000     4.069000000
C     2.854000000     5.052000000     5.398000000
H     2.321000000     5.540000000     6.209000000
C     3.099000000     3.685000000     5.508000000
O     2.556000000     3.062000000     6.599000000
C     1.591000000     2.097000000     6.464000000
C     1.757000000     0.829000000     7.085000000
H     2.624000000     0.568000000     7.685000000
C     0.777000000    -0.175000000     6.810000000
O     0.993000000    -1.452000000     7.212000000
C     0.388000000    -2.566000000     6.657000000
C     0.918000000    -3.293000000     5.583000000
H     1.871000000    -3.049000000     5.121000000
C    -0.850000000    -2.927000000     7.168000000
H    -1.297000000    -2.365000000     7.984000000
C    -1.598000000    -3.990000000     6.636000000
H    -2.582000000    -4.252000000     7.016000000
C    -1.049000000    -4.655000000     5.555000000
H    -1.672000000    -5.452000000     5.157000000
C     0.172000000    -4.345000000     5.009000000
O     0.632000000    -5.070000000     3.966000000
C     0.314000000    -4.950000000     2.603000000
C     1.120000000    -5.594000000     1.650000000
H     1.953000000    -6.234000000     1.929000000
C     0.822000000    -5.447000000     0.290000000
O     1.599000000    -6.144000000    -0.647000000
C     1.286000000    -6.223000000    -2.016000000
C     1.722000000    -5.247000000    -2.898000000
H     2.455000000    -4.514000000    -2.568000000
C     0.473000000    -7.239000000    -2.494000000
H     0.016000000    -8.030000000    -1.906000000
C     0.136000000    -7.277000000    -3.823000000
H    -0.573000000    -8.025000000    -4.170000000
C     0.621000000    -6.282000000    -4.691000000
H     0.331000000    -6.299000000    -5.738000000
C     1.461000000    -5.244000000    -4.204000000
O     2.181000000    -4.513000000    -5.091000000
C     1.953000000    -3.197000000    -5.421000000
C     3.046000000    -2.517000000    -5.989000000
H     4.003000000    -3.013000000    -6.133000000
C     2.845000000    -1.166000000    -6.233000000
O     3.945000000    -0.412000000    -6.494000000
C     4.146000000     0.800000000    -5.891000000
C     4.174000000     1.949000000    -6.577000000
H     4.050000000     1.989000000    -7.656000000
C     4.359000000     3.093000000    -5.807000000
H     4.261000000     4.020000000    -6.366000000
C     4.526000000     3.139000000    -4.417000000
H     4.699000000     4.065000000    -3.875000000
C     4.602000000     1.911000000    -3.778000000
C     4.357000000     0.730000000    -4.522000000
H     4.281000000    -0.196000000    -3.957000000
C     1.947000000    -2.187000000     1.719000000
H     2.187000000    -2.991000000     2.411000000
C     1.001000000    -1.165000000     2.016000000
H     0.484000000    -1.074000000     2.968000000
C     0.620000000    -0.242000000     1.075000000
H    -0.149000000     0.474000000     1.318000000
C     1.172000000    -0.315000000    -0.231000000
H     0.859000000     0.337000000    -1.043000000
C     2.082000000    -1.338000000    -0.518000000
H     2.483000000    -1.311000000    -1.528000000
C     2.490000000    -2.273000000     0.474000000
C     3.534000000    -3.325000000     0.145000000
O     4.114000000    -3.264000000    -0.928000000
O     3.907000000    -4.167000000     0.998000000
O     4.140000000    -6.863000000     5.183000000
H     3.619000000    -6.139000000     4.834000000
H     4.015000000    -7.573000000     4.553000000
O     8.388000000    -2.827000000     2.951000000
H     8.456000000    -3.782000000     2.941000000
H     7.448000000    -2.653000000     2.917000000
O     3.322000000    -8.271000000     3.067000000
H     2.739000000    -8.863000000     3.542000000
H     3.273000000    -8.566000000     2.157000000
O     5.877000000    -2.414000000     2.188000000
H     5.398000000    -3.118000000     1.752000000
H     5.198000000    -1.886000000     2.608000000
O     7.646000000    -7.133000000    -0.310000000
H     7.723000000    -7.989000000     0.113000000
H     6.735000000    -6.876000000    -0.167000000
O    -0.277000000    -8.495000000     1.195000000
H    -0.557000000    -7.621000000     0.922000000
H     0.000000000    -8.385000000     2.104000000
O     3.805000000    -8.953000000     0.537000000
H     3.017000000    -9.455000000     0.329000000
H     4.457000000    -9.616000000     0.766000000
O     5.292000000    -6.064000000    -5.251000000
H     5.349000000    -5.695000000    -4.369000000
H     5.633000000    -5.375000000    -5.821000000
O     5.701000000    -4.921000000    -2.442000000
H     5.110000000    -4.280000000    -2.048000000
H     5.722000000    -5.644000000    -1.816000000
O     6.383000000    -3.176000000    -4.637000000
H     5.948000000    -3.814000000    -4.071000000
H     7.197000000    -2.965000000    -4.180000000
O     4.207000000     0.087000000     2.516000000
H     3.474000000    -0.282000000     2.023000000
H     4.294000000     0.980000000     2.183000000
O     3.974000000    -4.183000000     3.960000000
H     4.474000000    -3.372000000     3.874000000
H     3.791000000    -4.448000000     3.058000000
O     7.349000000    -0.002000000    -1.975000000
H     7.964000000    -0.571000000    -1.513000000
H     6.493000000    -0.228000000    -1.611000000
O     5.136000000    -6.320000000    -0.164000000
H     4.620000000    -5.602000000     0.203000000
H     4.645000000    -7.109000000     0.066000000
O     5.551000000    -4.616000000     6.256000000
H     5.596000000    -5.329000000     6.893000000
H     5.024000000    -4.968000000     5.539000000
O     4.419000000    -1.555000000     4.569000000
H     4.649000000    -1.203000000     5.430000000
H     4.419000000    -0.792000000     3.991000000
O     7.309000000    -5.333000000     3.367000000
H     7.763000000    -6.172000000     3.286000000
H     6.458000000    -5.481000000     2.954000000
O     8.024000000    -3.419000000    -2.267000000
H     7.710000000    -2.848000000    -1.566000000
H     7.296000000    -4.017000000    -2.433000000
O     6.632000000    -2.044000000    -0.280000000
H     5.779000000    -2.453000000    -0.426000000
H     6.806000000    -2.177000000     0.652000000
