215
-1448.35463
C    -0.734000000     1.296000000     4.943000000
H    -1.673000000     0.799000000     5.172000000
C    -0.640000000     2.246000000     3.895000000
C     0.575000000     2.864000000     3.720000000
H     0.685000000     3.527000000     2.865000000
C    -1.762000000     2.423000000     2.903000000
O    -3.014000000     1.908000000     3.441000000
H    -1.529000000     1.807000000     2.022000000
O    -2.071000000     3.780000000     2.374000000
C    -2.357000000     4.008000000     1.023000000
C    -1.296000000     4.444000000     0.210000000
H    -0.339000000     4.787000000     0.596000000
C    -1.348000000     4.289000000    -1.130000000
O    -0.258000000     4.648000000    -1.849000000
C    -2.499000000     3.889000000    -1.746000000
C    -2.621000000     3.669000000    -3.247000000
H    -3.691000000     3.513000000    -3.399000000
C    -1.853000000     2.504000000    -3.787000000
C    -2.646000000     1.421000000    -4.128000000
H    -3.729000000     1.514000000    -4.120000000
H    -2.365000000     4.564000000    -3.816000000
C    -3.600000000     3.523000000    -0.937000000
H    -4.512000000     3.299000000    -1.484000000
C    -3.533000000     3.539000000     0.454000000
C    -4.648000000     2.954000000     1.254000000
H    -5.596000000     2.926000000     0.712000000
H    -4.939000000     3.537000000     2.130000000
C    -4.412000000     1.468000000     1.521000000
C    -4.832000000     0.520000000     0.573000000
H    -5.478000000     0.841000000    -0.241000000
C    -3.577000000     1.021000000     2.613000000
C    -3.326000000    -0.317000000     2.825000000
H    -2.652000000    -0.593000000     3.632000000
C    -3.821000000    -1.248000000     1.937000000
O    -3.442000000    -2.581000000     2.057000000
C    -2.319000000    -2.962000000     1.301000000
C    -1.383000000    -3.811000000     2.139000000
C    -0.663000000    -4.857000000     1.595000000
H    -0.722000000    -5.026000000     0.523000000
C    -1.187000000    -3.616000000     3.543000000
H    -1.640000000    -2.791000000     4.086000000
O    -2.830000000    -3.714000000     0.222000000
H    -1.772000000    -2.087000000     0.921000000
C    -4.589000000    -0.844000000     0.816000000
C    -5.019000000    -1.892000000    -0.220000000
H    -5.929000000    -1.452000000    -0.634000000
H    -5.360000000    -2.769000000     0.334000000
C    -3.930000000    -2.115000000    -1.225000000
C    -3.891000000    -1.410000000    -2.422000000
H    -4.705000000    -0.700000000    -2.539000000
C    -3.013000000    -3.147000000    -0.988000000
C    -2.048000000    -3.482000000    -1.944000000
H    -1.287000000    -4.216000000    -1.688000000
C    -2.089000000    -2.800000000    -3.206000000
O    -1.001000000    -2.949000000    -4.070000000
C     0.061000000    -1.956000000    -3.914000000
C     1.457000000    -2.605000000    -3.779000000
C     1.635000000    -3.798000000    -3.153000000
H     0.812000000    -4.451000000    -2.877000000
C     2.594000000    -1.857000000    -4.112000000
H     2.456000000    -0.907000000    -4.623000000
O    -0.156000000    -1.066000000    -5.044000000
H    -0.178000000    -1.404000000    -2.993000000
C    -2.997000000    -1.734000000    -3.425000000
C    -3.050000000    -0.896000000    -4.732000000
H    -4.023000000    -0.449000000    -4.943000000
H    -2.728000000    -1.477000000    -5.599000000
C    -2.075000000     0.233000000    -4.594000000
C    -0.676000000     0.126000000    -4.693000000
C     0.112000000     1.222000000    -4.418000000
H     1.189000000     1.274000000    -4.556000000
C    -0.473000000     2.425000000    -4.018000000
O     0.393000000     3.418000000    -3.739000000
C     0.633000000     3.620000000    -2.348000000
H     0.564000000     2.681000000    -1.779000000
C     2.094000000     4.020000000    -2.109000000
C     2.445000000     4.834000000    -1.004000000
H     1.619000000     4.979000000    -0.313000000
C     3.168000000     3.531000000    -2.879000000
H     2.940000000     2.913000000    -3.744000000
C     4.495000000     3.693000000    -2.492000000
O     5.506000000     2.994000000    -3.117000000
C     4.834000000     4.481000000    -1.373000000
H     5.839000000     4.735000000    -1.045000000
C     3.769000000     5.035000000    -0.649000000
O     4.157000000     5.731000000     0.512000000
C     3.567000000     5.600000000     1.732000000
C     3.450000000     4.363000000     2.466000000
H     3.678000000     3.350000000     2.143000000
C     3.211000000     6.806000000     2.267000000
H     3.322000000     7.693000000     1.649000000
C     2.750000000     6.926000000     3.563000000
H     2.503000000     7.896000000     3.987000000
C     2.571000000     5.766000000     4.336000000
H     2.298000000     5.831000000     5.386000000
C     2.963000000     4.552000000     3.769000000
O     2.760000000     3.447000000     4.513000000
C     1.640000000     2.707000000     4.612000000
C     1.483000000     1.842000000     5.729000000
H     2.343000000     1.637000000     6.361000000
C     0.324000000     1.176000000     5.904000000
O     0.198000000     0.294000000     6.912000000
C    -0.520000000    -0.905000000     6.871000000
C    -0.042000000    -1.965000000     6.167000000
H     0.932000000    -1.885000000     5.692000000
C    -1.592000000    -1.035000000     7.804000000
H    -1.827000000    -0.258000000     8.527000000
C    -2.208000000    -2.281000000     7.990000000
H    -3.144000000    -2.416000000     8.525000000
C    -1.770000000    -3.329000000     7.142000000
H    -2.296000000    -4.269000000     7.283000000
C    -0.671000000    -3.187000000     6.308000000
O    -0.233000000    -4.286000000     5.689000000
C    -0.282000000    -4.412000000     4.281000000
C     0.387000000    -5.487000000     3.678000000
H     0.954000000    -6.119000000     4.357000000
C     0.179000000    -5.667000000     2.315000000
O     1.111000000    -6.516000000     1.740000000
C     1.148000000    -6.684000000     0.461000000
C     2.088000000    -6.070000000    -0.374000000
H     2.726000000    -5.326000000     0.096000000
C     0.131000000    -7.459000000    -0.129000000
H    -0.693000000    -7.799000000     0.493000000
C     0.114000000    -7.623000000    -1.525000000
H    -0.591000000    -8.261000000    -2.052000000
C     1.087000000    -6.988000000    -2.301000000
H     1.120000000    -7.078000000    -3.384000000
C     2.065000000    -6.231000000    -1.750000000
O     3.049000000    -5.666000000    -2.486000000
C     2.947000000    -4.355000000    -2.911000000
C     4.047000000    -3.596000000    -3.263000000
H     5.032000000    -4.015000000    -3.070000000
C     3.899000000    -2.375000000    -3.862000000
O     5.130000000    -1.739000000    -4.159000000
C     5.265000000    -0.385000000    -4.507000000
C     5.021000000    -0.082000000    -5.803000000
H     4.760000000    -0.912000000    -6.454000000
C     4.926000000     1.232000000    -6.278000000
H     4.654000000     1.486000000    -7.299000000
C     5.139000000     2.286000000    -5.330000000
H     4.966000000     3.316000000    -5.632000000
C     5.361000000     1.918000000    -4.013000000
C     5.490000000     0.615000000    -3.582000000
H     5.529000000     0.415000000    -2.514000000
C     1.627000000    -1.309000000    -0.288000000
H     1.824000000    -2.357000000    -0.495000000
C     0.315000000    -0.795000000    -0.397000000
H    -0.464000000    -1.483000000    -0.713000000
C     0.054000000     0.550000000    -0.110000000
H    -0.962000000     0.960000000    -0.160000000
C     1.091000000     1.375000000     0.351000000
H     0.890000000     2.425000000     0.546000000
C     2.346000000     0.789000000     0.522000000
H     3.210000000     1.342000000     0.881000000
C     2.680000000    -0.485000000     0.088000000
C     4.048000000    -1.038000000     0.349000000
O     5.014000000    -0.320000000     0.640000000
O     4.180000000    -2.235000000     0.590000000
O     4.383000000    -4.231000000     5.220000000
H     4.155000000    -3.889000000     4.356000000
H     3.751000000    -4.934000000     5.373000000
O     3.930000000    -2.101000000     7.438000000
H     3.654000000    -2.978000000     7.702000000
H     4.159000000    -2.189000000     6.513000000
O     8.304000000    -3.732000000    -3.450000000
H     7.903000000    -3.065000000    -2.893000000
H     8.753000000    -4.315000000    -2.839000000
O     4.700000000    -0.591000000     3.369000000
H     4.791000000    -0.450000000     2.426000000
H     4.420000000    -1.503000000     3.448000000
O     7.591000000    -1.032000000     1.341000000
H     7.479000000    -1.975000000     1.461000000
H     6.737000000    -0.727000000     1.034000000
O     5.703000000     2.015000000     3.599000000
H     5.233000000     1.204000000     3.404000000
H     6.466000000     1.995000000     3.022000000
O     6.465000000    -4.136000000     0.993000000
H     5.559000000    -3.857000000     0.857000000
H     6.746000000    -4.461000000     0.137000000
O     8.921000000     0.444000000     3.219000000
H     9.847000000     0.551000000     3.000000000
H     8.550000000    -0.018000000     2.467000000
O     5.837000000     3.438000000     5.821000000
H     5.571000000     2.877000000     5.092000000
H     6.680000000     3.800000000     5.548000000
O     8.503000000    -4.304000000     3.094000000
H     7.847000000    -4.548000000     2.442000000
H     8.000000000    -4.144000000     3.892000000
O     6.523000000    -2.644000000    -1.354000000
H     6.269000000    -1.834000000    -1.796000000
H     5.790000000    -2.838000000    -0.769000000
O    10.203000000    -0.367000000    -2.641000000
H     9.914000000    -0.534000000    -1.744000000
H     9.827000000     0.486000000    -2.859000000
O     8.581000000     2.115000000    -2.454000000
H     9.173000000     2.479000000    -1.796000000
H     7.779000000     1.918000000    -1.971000000
O     6.691000000     1.445000000    -0.447000000
H     6.814000000     2.046000000     0.288000000
H     6.138000000     0.747000000    -0.096000000
O     0.561000000    -1.370000000     2.351000000
H     1.307000000    -1.200000000     1.777000000
H     0.044000000    -0.565000000     2.317000000
O     6.398000000    -6.023000000    -1.268000000
H     6.309000000    -6.417000000    -2.136000000
H     7.117000000    -5.398000000    -1.362000000
O     3.440000000    -3.056000000     2.892000000
H     3.828000000    -2.759000000     2.069000000
H     2.498000000    -2.929000000     2.772000000
O     6.496000000     3.498000000     1.350000000
H     7.004000000     4.072000000     0.777000000
H     6.269000000     4.048000000     2.100000000
O    10.073000000    -0.485000000     0.021000000
H     9.234000000    -0.564000000     0.477000000
H    10.725000000    -0.732000000     0.676000000
