215
-1455.78868
C    -0.940000000    -0.279000000     4.963000000
H    -1.498000000    -1.126000000     4.571000000
C    -1.221000000     1.047000000     4.625000000
C    -0.314000000     2.000000000     5.092000000
H    -0.502000000     3.041000000     4.843000000
C    -2.307000000     1.215000000     3.499000000
O    -3.501000000     0.462000000     3.649000000
H    -1.760000000     0.862000000     2.612000000
O    -2.665000000     2.567000000     3.230000000
C    -2.742000000     3.105000000     1.930000000
C    -1.776000000     4.042000000     1.575000000
H    -1.034000000     4.311000000     2.322000000
C    -1.831000000     4.466000000     0.270000000
O    -0.737000000     5.114000000    -0.175000000
C    -2.767000000     4.085000000    -0.689000000
C    -2.833000000     4.643000000    -2.100000000
H    -3.840000000     4.660000000    -2.520000000
C    -2.111000000     3.597000000    -2.967000000
C    -2.791000000     2.533000000    -3.466000000
H    -3.875000000     2.456000000    -3.449000000
H    -2.377000000     5.635000000    -2.088000000
C    -3.793000000     3.207000000    -0.248000000
H    -4.564000000     2.922000000    -0.960000000
C    -3.775000000     2.750000000     1.034000000
C    -4.885000000     1.934000000     1.518000000
H    -5.848000000     2.105000000     1.033000000
H    -5.074000000     2.185000000     2.563000000
C    -4.647000000     0.401000000     1.517000000
C    -5.035000000    -0.331000000     0.389000000
H    -5.569000000     0.103000000    -0.452000000
C    -3.959000000    -0.203000000     2.544000000
C    -3.499000000    -1.501000000     2.427000000
H    -3.064000000    -2.033000000     3.269000000
C    -3.803000000    -2.241000000     1.264000000
O    -3.378000000    -3.552000000     1.150000000
C    -2.293000000    -3.826000000     0.236000000
C    -1.309000000    -4.830000000     0.808000000
C    -0.507000000    -5.637000000    -0.035000000
H    -0.655000000    -5.562000000    -1.110000000
C    -1.229000000    -4.963000000     2.180000000
H    -1.886000000    -4.378000000     2.818000000
O    -2.737000000    -4.121000000    -1.132000000
H    -1.746000000    -2.882000000     0.095000000
C    -4.619000000    -1.678000000     0.282000000
C    -5.048000000    -2.459000000    -0.994000000
H    -5.893000000    -1.962000000    -1.474000000
H    -5.332000000    -3.502000000    -0.834000000
C    -3.886000000    -2.241000000    -1.944000000
C    -3.802000000    -1.119000000    -2.861000000
H    -4.597000000    -0.391000000    -2.721000000
C    -2.804000000    -3.129000000    -2.000000000
C    -1.767000000    -2.937000000    -2.904000000
H    -0.908000000    -3.599000000    -2.841000000
C    -1.782000000    -1.879000000    -3.852000000
O    -0.559000000    -1.654000000    -4.481000000
C     0.236000000    -0.632000000    -3.852000000
C     1.752000000    -0.999000000    -3.921000000
C     2.142000000    -2.246000000    -3.429000000
H     1.379000000    -2.937000000    -3.079000000
C     2.754000000    -0.065000000    -4.272000000
H     2.502000000     0.897000000    -4.712000000
O     0.035000000     0.479000000    -4.703000000
H    -0.062000000    -0.522000000    -2.799000000
C    -2.850000000    -0.968000000    -3.855000000
C    -2.811000000     0.263000000    -4.743000000
H    -3.772000000     0.663000000    -5.073000000
H    -2.327000000     0.001000000    -5.687000000
C    -2.093000000     1.471000000    -4.096000000
C    -0.692000000     1.483000000    -4.293000000
C     0.029000000     2.588000000    -3.856000000
H     1.115000000     2.536000000    -3.839000000
C    -0.722000000     3.597000000    -3.123000000
O     0.012000000     4.504000000    -2.420000000
C     0.183000000     4.288000000    -0.995000000
H    -0.183000000     3.271000000    -0.792000000
C     1.706000000     4.415000000    -0.707000000
C     2.098000000     4.091000000     0.558000000
H     1.315000000     3.838000000     1.268000000
C     2.663000000     4.543000000    -1.694000000
H     2.374000000     4.463000000    -2.738000000
C     3.991000000     4.689000000    -1.384000000
O     4.940000000     4.896000000    -2.368000000
C     4.382000000     4.590000000    -0.074000000
H     5.435000000     4.598000000     0.195000000
C     3.434000000     4.201000000     0.931000000
O     3.705000000     3.875000000     2.243000000
C     3.011000000     4.311000000     3.422000000
C     2.610000000     3.351000000     4.295000000
H     2.651000000     2.286000000     4.077000000
C     2.903000000     5.697000000     3.771000000
H     3.116000000     6.514000000     3.087000000
C     2.449000000     6.051000000     5.043000000
H     2.494000000     7.092000000     5.354000000
C     2.029000000     5.092000000     5.947000000
H     1.634000000     5.342000000     6.929000000
C     2.152000000     3.777000000     5.586000000
O     1.618000000     2.721000000     6.332000000
C     0.828000000     1.695000000     5.844000000
C     1.005000000     0.400000000     6.235000000
H     1.910000000     0.130000000     6.774000000
C     0.141000000    -0.585000000     5.812000000
O     0.570000000    -1.801000000     6.136000000
C    -0.163000000    -3.015000000     6.107000000
C     0.176000000    -3.964000000     5.130000000
H     1.005000000    -3.825000000     4.441000000
C    -1.263000000    -3.224000000     6.902000000
H    -1.619000000    -2.544000000     7.672000000
C    -1.896000000    -4.497000000     6.891000000
H    -2.753000000    -4.610000000     7.550000000
C    -1.608000000    -5.516000000     5.969000000
H    -2.039000000    -6.514000000     5.985000000
C    -0.573000000    -5.177000000     5.050000000
O    -0.224000000    -6.045000000     4.081000000
C    -0.264000000    -5.797000000     2.690000000
C     0.651000000    -6.526000000     1.903000000
H     1.464000000    -7.080000000     2.367000000
C     0.561000000    -6.361000000     0.519000000
O     1.423000000    -7.044000000    -0.309000000
C     1.878000000    -6.555000000    -1.501000000
C     2.662000000    -5.412000000    -1.579000000
H     2.831000000    -4.909000000    -0.630000000
C     1.514000000    -7.197000000    -2.681000000
H     0.870000000    -8.072000000    -2.653000000
C     1.942000000    -6.648000000    -3.874000000
H     1.613000000    -7.061000000    -4.824000000
C     2.759000000    -5.510000000    -3.968000000
H     2.909000000    -5.022000000    -4.927000000
C     3.142000000    -4.935000000    -2.796000000
O     3.973000000    -3.785000000    -2.932000000
C     3.496000000    -2.560000000    -3.385000000
C     4.458000000    -1.634000000    -3.714000000
H     5.518000000    -1.874000000    -3.698000000
C     4.103000000    -0.385000000    -4.225000000
O     5.136000000     0.511000000    -4.470000000
C     5.097000000     1.845000000    -4.540000000
C     5.173000000     2.512000000    -5.761000000
H     5.238000000     1.888000000    -6.649000000
C     5.368000000     3.845000000    -5.841000000
H     5.571000000     4.195000000    -6.849000000
C     5.223000000     4.632000000    -4.709000000
H     5.371000000     5.709000000    -4.712000000
C     4.994000000     4.021000000    -3.474000000
C     5.054000000     2.608000000    -3.411000000
H     5.093000000     2.115000000    -2.443000000
C     1.835000000    -1.739000000     0.934000000
H     2.134000000    -2.600000000     1.526000000
C     0.565000000    -1.156000000     0.922000000
H    -0.237000000    -1.567000000     1.530000000
C     0.232000000    -0.026000000     0.099000000
H    -0.748000000     0.375000000     0.282000000
C     1.250000000     0.520000000    -0.563000000
H     1.030000000     1.476000000    -1.030000000
C     2.515000000    -0.033000000    -0.571000000
H     3.337000000     0.456000000    -1.088000000
C     2.880000000    -1.159000000     0.182000000
C     4.287000000    -1.623000000     0.289000000
O     5.188000000    -0.845000000     0.030000000
O     4.598000000    -2.744000000     0.660000000
O     7.361000000    -5.562000000     2.484000000
H     6.997000000    -6.297000000     1.991000000
H     6.595000000    -5.079000000     2.795000000
O     6.666000000    -3.939000000    -3.847000000
H     7.391000000    -3.326000000    -3.725000000
H     5.984000000    -3.625000000    -3.254000000
O     6.285000000    -2.952000000     2.587000000
H     5.718000000    -2.903000000     1.817000000
H     6.688000000    -2.086000000     2.644000000
O     8.949000000    -2.286000000    -3.406000000
H     8.370000000    -1.523000000    -3.397000000
H     9.152000000    -2.443000000    -2.484000000
O     6.574000000     0.965000000     4.997000000
H     6.018000000     0.618000000     5.695000000
H     6.183000000     1.811000000     4.778000000
O     4.187000000    -7.840000000     2.603000000
H     3.472000000    -8.413000000     2.327000000
H     4.145000000    -7.097000000     2.001000000
O     6.860000000    -3.249000000     5.520000000
H     7.514000000    -2.554000000     5.589000000
H     6.889000000    -3.516000000     4.602000000
O     5.913000000    -5.992000000    -1.579000000
H     6.312000000    -6.160000000    -2.432000000
H     5.898000000    -5.037000000    -1.506000000
O     6.491000000    -3.411000000    -1.023000000
H     5.826000000    -3.052000000    -0.436000000
H     7.293000000    -2.943000000    -0.789000000
O     7.388000000     3.115000000     1.525000000
H     6.604000000     2.723000000     1.140000000
H     7.077000000     3.536000000     2.326000000
O     5.471000000     1.673000000     0.385000000
H     4.613000000     1.901000000     0.743000000
H     5.427000000     0.728000000     0.242000000
O     8.565000000     0.498000000     0.350000000
H     8.229000000     1.362000000     0.588000000
H     8.564000000     0.006000000     1.171000000
O     3.751000000    -2.926000000     3.960000000
H     3.691000000    -2.303000000     3.236000000
H     4.663000000    -3.218000000     3.949000000
O     4.554000000    -5.589000000     0.907000000
H     4.428000000    -4.642000000     0.967000000
H     4.673000000    -5.756000000    -0.028000000
O     7.420000000    -0.236000000     2.778000000
H     7.162000000     0.216000000     3.581000000
H     6.878000000     0.160000000     2.096000000
O     8.759000000    -5.655000000    -0.766000000
H     7.956000000    -5.145000000    -0.878000000
H     9.152000000    -5.310000000     0.035000000
O     3.229000000    -3.616000000     6.649000000
H     3.314000000    -3.253000000     5.767000000
H     2.497000000    -3.135000000     7.035000000
O     9.013000000    -2.464000000    -0.456000000
H     9.485000000    -1.644000000    -0.308000000
H     9.131000000    -2.958000000     0.356000000
O     7.178000000    -0.434000000    -2.233000000
H     6.328000000    -0.543000000    -1.807000000
H     7.657000000     0.165000000    -1.661000000
