215
-1453.13611
C     1.178000000     1.937000000     4.350000000
H     0.186000000     1.522000000     4.508000000
C     1.218000000     3.075000000     3.559000000
C     2.492000000     3.635000000     3.404000000
H     2.604000000     4.533000000     2.800000000
C    -0.078000000     3.442000000     2.803000000
O    -1.267000000     3.256000000     3.575000000
H    -0.138000000     2.626000000     2.067000000
O     0.037000000     4.692000000     2.155000000
C    -0.257000000     4.602000000     0.816000000
C     0.809000000     4.537000000    -0.107000000
H     1.837000000     4.368000000     0.203000000
C     0.529000000     4.450000000    -1.480000000
O     1.539000000     4.133000000    -2.282000000
C    -0.831000000     4.539000000    -1.908000000
C    -1.097000000     4.250000000    -3.441000000
H    -2.083000000     4.657000000    -3.674000000
C    -1.181000000     2.753000000    -3.854000000
C    -2.417000000     2.099000000    -3.788000000
H    -3.307000000     2.630000000    -3.459000000
H    -0.333000000     4.755000000    -4.035000000
C    -1.874000000     4.675000000    -0.983000000
H    -2.925000000     4.788000000    -1.237000000
C    -1.570000000     4.666000000     0.405000000
C    -2.726000000     4.740000000     1.388000000
H    -3.587000000     5.190000000     0.890000000
H    -2.606000000     5.437000000     2.220000000
C    -3.067000000     3.355000000     1.839000000
C    -4.078000000     2.662000000     1.152000000
H    -4.579000000     3.129000000     0.308000000
C    -2.422000000     2.751000000     2.938000000
C    -2.810000000     1.465000000     3.332000000
H    -2.256000000     0.973000000     4.128000000
C    -3.710000000     0.767000000     2.573000000
O    -3.920000000    -0.508000000     2.975000000
C    -3.313000000    -1.489000000     2.043000000
C    -2.514000000    -2.618000000     2.858000000
C    -2.003000000    -3.708000000     2.182000000
H    -2.120000000    -3.736000000     1.101000000
C    -2.207000000    -2.425000000     4.181000000
H    -2.486000000    -1.500000000     4.679000000
O    -4.288000000    -2.103000000     1.232000000
H    -2.601000000    -0.938000000     1.412000000
C    -4.434000000     1.376000000     1.539000000
C    -5.474000000     0.611000000     0.692000000
H    -6.212000000     1.302000000     0.280000000
H    -6.061000000    -0.010000000     1.373000000
C    -4.887000000    -0.298000000    -0.329000000
C    -4.712000000     0.200000000    -1.614000000
H    -4.916000000     1.256000000    -1.774000000
C    -4.381000000    -1.536000000    -0.043000000
C    -3.877000000    -2.312000000    -1.049000000
H    -3.523000000    -3.335000000    -0.955000000
C    -3.716000000    -1.853000000    -2.341000000
O    -3.063000000    -2.645000000    -3.227000000
C    -1.665000000    -2.333000000    -3.514000000
C    -0.778000000    -3.581000000    -3.562000000
C    -1.184000000    -4.808000000    -3.007000000
H    -2.160000000    -4.886000000    -2.534000000
C     0.557000000    -3.533000000    -4.063000000
H     0.904000000    -2.576000000    -4.445000000
O    -1.493000000    -1.364000000    -4.554000000
H    -1.304000000    -1.804000000    -2.620000000
C    -4.197000000    -0.576000000    -2.669000000
C    -3.932000000     0.031000000    -4.079000000
H    -4.746000000     0.717000000    -4.324000000
H    -4.064000000    -0.722000000    -4.858000000
C    -2.583000000     0.730000000    -4.134000000
C    -1.404000000    -0.010000000    -4.236000000
C    -0.220000000     0.614000000    -4.414000000
H     0.636000000     0.068000000    -4.802000000
C    -0.084000000     1.989000000    -4.218000000
O     1.187000000     2.476000000    -4.017000000
C     1.723000000     2.726000000    -2.641000000
H     0.940000000     2.367000000    -1.957000000
C     3.197000000     2.297000000    -2.541000000
C     4.162000000     2.999000000    -1.764000000
H     3.920000000     3.951000000    -1.298000000
C     3.529000000     1.024000000    -3.038000000
H     2.775000000     0.459000000    -3.579000000
C     4.791000000     0.443000000    -2.825000000
O     5.142000000    -0.705000000    -3.425000000
C     5.711000000     1.147000000    -2.054000000
H     6.735000000     0.792000000    -1.975000000
C     5.390000000     2.396000000    -1.515000000
O     6.337000000     3.112000000    -0.757000000
C     6.050000000     3.894000000     0.341000000
C     5.498000000     3.360000000     1.478000000
H     5.295000000     2.292000000     1.483000000
C     6.363000000     5.285000000     0.325000000
H     6.923000000     5.805000000    -0.448000000
C     6.078000000     6.032000000     1.405000000
H     6.182000000     7.113000000     1.371000000
C     5.589000000     5.533000000     2.582000000
H     5.304000000     6.194000000     3.397000000
C     5.254000000     4.169000000     2.687000000
O     4.893000000     3.613000000     3.900000000
C     3.625000000     3.089000000     4.018000000
C     3.532000000     1.918000000     4.719000000
H     4.398000000     1.459000000     5.190000000
C     2.297000000     1.368000000     4.885000000
O     2.129000000     0.220000000     5.577000000
C     0.902000000    -0.165000000     6.145000000
C     0.412000000    -1.419000000     5.827000000
H     0.906000000    -1.945000000     5.014000000
C     0.492000000     0.422000000     7.349000000
H     0.910000000     1.380000000     7.648000000
C    -0.533000000    -0.099000000     8.087000000
H    -0.894000000     0.308000000     9.028000000
C    -1.183000000    -1.262000000     7.631000000
H    -1.989000000    -1.691000000     8.220000000
C    -0.662000000    -1.921000000     6.521000000
O    -1.038000000    -3.203000000     6.131000000
C    -1.430000000    -3.359000000     4.870000000
C    -0.958000000    -4.460000000     4.218000000
H    -0.434000000    -5.208000000     4.807000000
C    -1.276000000    -4.661000000     2.879000000
O    -0.733000000    -5.714000000     2.185000000
C    -1.344000000    -6.412000000     1.123000000
C    -0.752000000    -6.409000000    -0.140000000
H     0.174000000    -5.911000000    -0.417000000
C    -2.553000000    -7.010000000     1.345000000
H    -2.972000000    -6.960000000     2.347000000
C    -3.195000000    -7.642000000     0.339000000
H    -4.202000000    -8.034000000     0.458000000
C    -2.629000000    -7.664000000    -0.981000000
H    -3.133000000    -8.113000000    -1.833000000
C    -1.443000000    -7.012000000    -1.164000000
O    -0.845000000    -7.074000000    -2.374000000
C    -0.395000000    -5.926000000    -3.035000000
C     0.877000000    -5.976000000    -3.641000000
H     1.571000000    -6.813000000    -3.645000000
C     1.353000000    -4.742000000    -4.193000000
O     2.617000000    -4.680000000    -4.752000000
C     3.149000000    -3.412000000    -5.087000000
C     2.989000000    -2.872000000    -6.349000000
H     2.313000000    -3.386000000    -7.028000000
C     3.574000000    -1.609000000    -6.649000000
H     3.436000000    -1.275000000    -7.675000000
C     4.187000000    -0.859000000    -5.674000000
H     4.691000000     0.092000000    -5.822000000
C     4.418000000    -1.394000000    -4.390000000
C     3.886000000    -2.650000000    -4.154000000
H     3.957000000    -2.897000000    -3.098000000
C     0.706000000    -1.238000000     1.252000000
H     0.984000000    -1.749000000     2.171000000
C    -0.234000000    -0.171000000     1.409000000
H    -0.626000000     0.063000000     2.395000000
C    -0.663000000     0.524000000     0.250000000
H    -1.423000000     1.295000000     0.326000000
C    -0.252000000     0.033000000    -0.977000000
H    -0.625000000     0.612000000    -1.817000000
C     0.785000000    -0.914000000    -1.144000000
H     1.193000000    -1.153000000    -2.123000000
C     1.223000000    -1.610000000     0.046000000
C     2.210000000    -2.689000000    -0.018000000
O     2.207000000    -3.436000000    -0.987000000
O     2.877000000    -2.899000000     0.979000000
O     5.242000000    -4.443000000     3.819000000
H     5.211000000    -4.494000000     2.864000000
H     5.333000000    -5.352000000     4.105000000
O     3.072000000    -7.375000000     1.495000000
H     2.855000000    -6.466000000     1.288000000
H     3.825000000    -7.313000000     2.082000000
O     3.932000000    -0.195000000     0.965000000
H     3.376000000     0.562000000     0.777000000
H     3.339000000    -0.945000000     0.918000000
O     5.245000000    -1.524000000     3.738000000
H     5.119000000    -2.431000000     4.017000000
H     4.743000000    -1.452000000     2.926000000
O     1.789000000    -9.944000000     1.695000000
H     2.242000000    -9.154000000     1.402000000
H     0.909000000    -9.867000000     1.326000000
O     7.201000000    -6.129000000    -1.112000000
H     6.587000000    -6.513000000    -0.486000000
H     7.932000000    -5.826000000    -0.575000000
O     0.790000000    -7.922000000     4.702000000
H     0.427000000    -7.196000000     4.196000000
H     0.172000000    -8.640000000     4.568000000
O     5.050000000    -4.392000000     1.044000000
H     4.257000000    -3.871000000     1.169000000
H     4.799000000    -5.062000000     0.408000000
O     3.499000000    -5.661000000    -1.447000000
H     3.033000000    -4.827000000    -1.385000000
H     3.985000000    -5.603000000    -2.269000000
O     6.682000000     0.224000000     1.179000000
H     6.713000000     1.168000000     1.332000000
H     5.754000000     0.035000000     1.039000000
O     5.859000000    -6.024000000    -3.545000000
H     6.339000000    -5.983000000    -2.718000000
H     6.372000000    -5.483000000    -4.146000000
O     1.940000000    -4.958000000     2.519000000
H     0.992000000    -5.088000000     2.475000000
H     2.104000000    -4.200000000     1.957000000
O     5.755000000    -7.528000000     2.768000000
H     5.533000000    -8.447000000     2.622000000
H     5.950000000    -7.474000000     3.704000000
O     2.258000000    -8.227000000    -1.063000000
H     2.685000000    -7.836000000    -0.300000000
H     1.860000000    -7.487000000    -1.520000000
O     2.778000000    -4.546000000     4.948000000
H     3.684000000    -4.292000000     4.768000000
H     2.397000000    -4.703000000     4.085000000
O     7.782000000    -0.831000000     3.992000000
H     8.411000000    -0.524000000     3.338000000
H     6.934000000    -0.779000000     3.552000000
O     4.103000000    -8.089000000    -4.205000000
H     3.914000000    -7.542000000    -4.967000000
H     4.545000000    -7.502000000    -3.592000000
O     7.546000000    -2.042000000    -0.301000000
H     6.749000000    -2.376000000    -0.712000000
H     7.262000000    -1.258000000     0.170000000
O     7.680000000    -5.658000000     1.797000000
H     7.011000000    -5.007000000     1.588000000
H     7.195000000    -6.376000000     2.205000000
