215
-1428.98843
C    -0.007000000     0.519000000     5.214000000
H    -0.884000000    -0.099000000     5.387000000
C     0.001000000     1.649000000     4.399000000
C     1.247000000     2.381000000     4.234000000
H     1.226000000     3.322000000     3.690000000
C    -1.275000000     2.071000000     3.611000000
O    -2.500000000     1.577000000     4.133000000
H    -1.048000000     1.715000000     2.595000000
O    -1.342000000     3.497000000     3.454000000
C    -1.459000000     3.875000000     2.091000000
C    -0.336000000     4.253000000     1.361000000
H     0.644000000     4.181000000     1.825000000
C    -0.508000000     4.314000000    -0.036000000
O     0.637000000     4.440000000    -0.724000000
C    -1.757000000     4.213000000    -0.611000000
C    -1.933000000     4.430000000    -2.074000000
H    -2.912000000     4.816000000    -2.364000000
C    -1.719000000     3.147000000    -2.853000000
C    -2.791000000     2.311000000    -3.251000000
H    -3.788000000     2.448000000    -2.840000000
H    -1.312000000     5.292000000    -2.325000000
C    -2.862000000     3.867000000     0.155000000
H    -3.832000000     3.765000000    -0.324000000
C    -2.722000000     3.755000000     1.529000000
C    -3.959000000     3.353000000     2.333000000
H    -4.834000000     3.851000000     1.910000000
H    -3.945000000     3.678000000     3.375000000
C    -4.089000000     1.786000000     2.283000000
C    -4.731000000     1.084000000     1.257000000
H    -5.216000000     1.698000000     0.502000000
C    -3.437000000     0.981000000     3.273000000
C    -3.559000000    -0.374000000     3.234000000
H    -3.026000000    -0.971000000     3.969000000
C    -4.143000000    -1.012000000     2.221000000
O    -4.033000000    -2.357000000     2.091000000
C    -3.111000000    -2.839000000     1.113000000
C    -2.112000000    -3.780000000     1.804000000
C    -1.317000000    -4.641000000     1.038000000
H    -1.366000000    -4.526000000    -0.042000000
C    -2.073000000    -3.937000000     3.263000000
H    -2.703000000    -3.314000000     3.893000000
O    -3.724000000    -3.384000000    -0.045000000
H    -2.484000000    -2.028000000     0.714000000
C    -4.726000000    -0.300000000     1.202000000
C    -5.495000000    -1.006000000     0.099000000
H    -6.352000000    -0.394000000    -0.191000000
H    -5.980000000    -1.868000000     0.562000000
C    -4.602000000    -1.449000000    -1.134000000
C    -4.541000000    -0.559000000    -2.191000000
H    -5.132000000     0.352000000    -2.136000000
C    -3.781000000    -2.587000000    -1.145000000
C    -2.903000000    -2.827000000    -2.181000000
H    -2.213000000    -3.663000000    -2.103000000
C    -2.885000000    -1.957000000    -3.275000000
O    -1.922000000    -2.175000000    -4.287000000
C    -0.829000000    -1.268000000    -4.232000000
C     0.524000000    -2.004000000    -4.489000000
C     0.645000000    -3.365000000    -4.084000000
H    -0.063000000    -3.994000000    -3.550000000
C     1.642000000    -1.380000000    -4.956000000
H     1.567000000    -0.311000000    -5.141000000
O    -0.964000000    -0.177000000    -5.171000000
H    -0.738000000    -0.782000000    -3.250000000
C    -3.752000000    -0.830000000    -3.262000000
C    -3.652000000     0.227000000    -4.340000000
H    -4.644000000     0.685000000    -4.340000000
H    -3.407000000    -0.262000000    -5.285000000
C    -2.583000000     1.225000000    -4.032000000
C    -1.304000000     0.989000000    -4.602000000
C    -0.272000000     1.841000000    -4.272000000
H     0.768000000     1.670000000    -4.538000000
C    -0.489000000     2.903000000    -3.425000000
O     0.663000000     3.511000000    -2.890000000
C     1.112000000     3.344000000    -1.491000000
H     0.662000000     2.403000000    -1.144000000
C     2.615000000     3.337000000    -1.438000000
C     3.321000000     3.803000000    -0.259000000
H     2.776000000     4.023000000     0.656000000
C     3.388000000     2.860000000    -2.470000000
H     2.927000000     2.424000000    -3.352000000
C     4.738000000     3.005000000    -2.507000000
O     5.486000000     2.613000000    -3.604000000
C     5.404000000     3.653000000    -1.460000000
H     6.488000000     3.724000000    -1.476000000
C     4.755000000     3.865000000    -0.220000000
O     5.483000000     4.454000000     0.769000000
C     4.883000000     4.673000000     1.991000000
C     4.634000000     3.553000000     2.820000000
H     4.899000000     2.555000000     2.480000000
C     4.495000000     5.918000000     2.336000000
H     4.644000000     6.797000000     1.713000000
C     3.827000000     6.067000000     3.514000000
H     3.474000000     7.089000000     3.632000000
C     3.580000000     4.985000000     4.366000000
H     2.991000000     5.085000000     5.275000000
C     3.984000000     3.734000000     4.044000000
O     3.628000000     2.664000000     4.852000000
C     2.405000000     1.982000000     4.894000000
C     2.345000000     0.778000000     5.499000000
H     3.182000000     0.417000000     6.091000000
C     1.171000000     0.088000000     5.707000000
O     1.277000000    -1.085000000     6.478000000
C     0.213000000    -1.942000000     6.654000000
C     0.066000000    -3.040000000     5.821000000
H     0.692000000    -3.030000000     4.932000000
C    -0.622000000    -1.831000000     7.771000000
H    -0.607000000    -1.017000000     8.492000000
C    -1.568000000    -2.803000000     8.017000000
H    -2.271000000    -2.631000000     8.828000000
C    -1.720000000    -3.901000000     7.257000000
H    -2.361000000    -4.708000000     7.604000000
C    -0.922000000    -3.983000000     6.097000000
O    -1.120000000    -5.041000000     5.191000000
C    -1.163000000    -4.794000000     3.824000000
C    -0.385000000    -5.613000000     3.026000000
H     0.386000000    -6.198000000     3.523000000
C    -0.350000000    -5.463000000     1.614000000
O     0.648000000    -6.038000000     0.892000000
C     0.550000000    -6.350000000    -0.477000000
C     1.292000000    -5.601000000    -1.478000000
H     1.917000000    -4.763000000    -1.183000000
C    -0.223000000    -7.431000000    -0.905000000
H    -0.795000000    -7.967000000    -0.152000000
C    -0.285000000    -7.755000000    -2.231000000
H    -0.843000000    -8.604000000    -2.619000000
C     0.601000000    -7.112000000    -3.117000000
H     0.595000000    -7.326000000    -4.182000000
C     1.361000000    -6.025000000    -2.794000000
O     2.064000000    -5.336000000    -3.771000000
C     1.936000000    -3.993000000    -4.208000000
C     2.997000000    -3.350000000    -4.892000000
H     3.854000000    -3.965000000    -5.154000000
C     2.896000000    -2.041000000    -5.220000000
O     4.062000000    -1.489000000    -5.788000000
C     4.418000000    -0.133000000    -5.854000000
C     4.395000000     0.504000000    -7.033000000
H     4.061000000    -0.035000000    -7.915000000
C     4.641000000     1.919000000    -7.098000000
H     4.687000000     2.418000000    -8.063000000
C     5.014000000     2.530000000    -5.907000000
H     5.281000000     3.583000000    -5.943000000
C     5.089000000     1.845000000    -4.690000000
C     4.777000000     0.495000000    -4.634000000
H     4.719000000    -0.115000000    -3.737000000
C     0.806000000    -1.282000000     1.150000000
H     1.273000000    -1.968000000     1.852000000
C    -0.423000000    -0.702000000     1.383000000
H    -0.922000000    -0.851000000     2.337000000
C    -0.996000000     0.074000000     0.377000000
H    -1.897000000     0.572000000     0.645000000
C    -0.261000000     0.238000000    -0.807000000
H    -0.726000000     0.871000000    -1.559000000
C     0.828000000    -0.534000000    -1.154000000
H     1.322000000    -0.268000000    -2.086000000
C     1.438000000    -1.259000000    -0.184000000
C     2.777000000    -1.990000000    -0.392000000
O     3.296000000    -2.039000000    -1.511000000
O     3.319000000    -2.439000000     0.576000000
O     3.037000000    -4.368000000     4.655000000
H     3.809000000    -4.900000000     4.460000000
H     2.995000000    -3.735000000     3.938000000
O     8.496000000    -2.976000000     2.909000000
H     8.655000000    -3.884000000     2.650000000
H     7.627000000    -2.990000000     3.309000000
O     5.052000000    -0.298000000     0.249000000
H     4.411000000    -0.907000000    -0.120000000
H     4.549000000     0.235000000     0.865000000
O     7.954000000     0.835000000     3.032000000
H     7.471000000     0.027000000     2.865000000
H     7.496000000     1.240000000     3.769000000
O     6.076000000    -5.709000000     2.204000000
H     6.356000000    -6.597000000     1.984000000
H     5.574000000    -5.420000000     1.442000000
O     3.244000000    -8.593000000    -0.540000000
H     3.261000000    -7.683000000    -0.836000000
H     3.394000000    -9.106000000    -1.334000000
O     6.236000000    -4.014000000     4.367000000
H     6.279000000    -4.732000000     3.736000000
H     5.971000000    -4.431000000     5.187000000
O     4.962000000    -4.876000000    -2.220000000
H     4.534000000    -4.026000000    -2.318000000
H     4.938000000    -5.050000000    -1.279000000
O     7.616000000    -2.227000000    -4.373000000
H     6.869000000    -2.381000000    -3.794000000
H     7.833000000    -1.303000000    -4.243000000
O     2.851000000     1.179000000     1.881000000
H     2.656000000     0.891000000     2.773000000
H     2.689000000     2.122000000     1.893000000
O     8.373000000    -4.882000000    -3.716000000
H     8.256000000    -3.958000000    -3.495000000
H     9.275000000    -5.077000000    -3.461000000
O     7.712000000     0.979000000     0.166000000
H     7.737000000     1.349000000     1.049000000
H     7.024000000     0.314000000     0.205000000
O     3.376000000    -1.901000000     3.164000000
H     4.264000000    -1.769000000     3.496000000
H     3.494000000    -2.079000000     2.230000000
O     3.975000000    -5.081000000     0.441000000
H     3.857000000    -4.147000000     0.614000000
H     3.364000000    -5.514000000     1.037000000
O     5.973000000    -1.185000000     4.433000000
H     5.924000000    -2.136000000     4.537000000
H     6.397000000    -0.878000000     5.235000000
O     6.335000000    -6.919000000    -3.733000000
H     6.457000000    -5.996000000    -3.511000000
H     5.388000000    -7.019000000    -3.831000000
O     8.037000000    -3.231000000    -0.770000000
H     7.397000000    -2.521000000    -0.726000000
H     7.508000000    -4.029000000    -0.795000000
O     5.775000000    -1.763000000    -2.083000000
H     4.830000000    -1.892000000    -2.157000000
H     5.870000000    -1.031000000    -1.474000000
O     3.113000000    -7.507000000    -4.983000000
H     2.769000000    -6.760000000    -4.494000000
H     3.539000000    -7.118000000    -5.746000000
