215
-1464.02839
C     1.022000000     0.580000000     4.556000000
H     0.140000000     0.005000000     4.288000000
C     0.998000000     1.963000000     4.290000000
C     2.133000000     2.732000000     4.531000000
H     2.074000000     3.800000000     4.338000000
C    -0.148000000     2.586000000     3.544000000
O    -1.387000000     2.214000000     4.263000000
H    -0.227000000     2.129000000     2.547000000
O    -0.060000000     3.993000000     3.329000000
C    -0.320000000     4.236000000     2.041000000
C     0.756000000     4.334000000     1.112000000
H     1.808000000     4.249000000     1.369000000
C     0.465000000     4.590000000    -0.202000000
O     1.420000000     4.420000000    -1.195000000
C    -0.837000000     4.590000000    -0.657000000
C    -1.133000000     4.914000000    -2.105000000
H    -2.058000000     5.483000000    -2.213000000
C    -1.290000000     3.673000000    -2.938000000
C    -2.626000000     3.102000000    -3.086000000
H    -3.522000000     3.567000000    -2.681000000
H    -0.427000000     5.605000000    -2.570000000
C    -1.927000000     4.436000000     0.236000000
H    -2.937000000     4.340000000    -0.154000000
C    -1.673000000     4.322000000     1.622000000
C    -2.850000000     4.051000000     2.534000000
H    -3.810000000     4.506000000     2.281000000
H    -2.652000000     4.467000000     3.524000000
C    -3.163000000     2.555000000     2.647000000
C    -4.230000000     2.004000000     1.877000000
H    -4.625000000     2.684000000     1.126000000
C    -2.464000000     1.739000000     3.566000000
C    -2.795000000     0.392000000     3.687000000
H    -2.274000000    -0.287000000     4.357000000
C    -3.755000000    -0.174000000     2.862000000
O    -3.855000000    -1.598000000     2.801000000
C    -3.370000000    -2.332000000     1.698000000
C    -2.623000000    -3.560000000     2.185000000
C    -1.823000000    -4.285000000     1.329000000
H    -1.894000000    -3.992000000     0.285000000
C    -2.412000000    -3.790000000     3.614000000
H    -2.801000000    -2.999000000     4.250000000
O    -4.259000000    -2.605000000     0.610000000
H    -2.554000000    -1.665000000     1.382000000
C    -4.519000000     0.637000000     1.963000000
C    -5.555000000    -0.002000000     1.018000000
H    -6.415000000     0.666000000     0.945000000
H    -5.985000000    -0.924000000     1.416000000
C    -4.887000000    -0.383000000    -0.284000000
C    -4.919000000     0.492000000    -1.395000000
H    -5.198000000     1.527000000    -1.218000000
C    -4.249000000    -1.660000000    -0.398000000
C    -3.755000000    -2.130000000    -1.593000000
H    -3.449000000    -3.169000000    -1.680000000
C    -3.706000000    -1.210000000    -2.599000000
O    -2.941000000    -1.592000000    -3.692000000
C    -1.603000000    -1.093000000    -3.779000000
C    -0.602000000    -2.151000000    -4.371000000
C    -0.482000000    -3.434000000    -3.763000000
H    -1.227000000    -3.728000000    -3.028000000
C     0.327000000    -1.802000000    -5.329000000
H     0.344000000    -0.821000000    -5.797000000
O    -1.697000000    -0.026000000    -4.730000000
H    -1.209000000    -0.652000000    -2.851000000
C    -4.258000000     0.086000000    -2.584000000
C    -4.069000000     1.144000000    -3.717000000
H    -4.991000000     1.725000000    -3.778000000
H    -4.093000000     0.576000000    -4.650000000
C    -2.721000000     1.836000000    -3.687000000
C    -1.623000000     1.321000000    -4.346000000
C    -0.415000000     1.935000000    -4.398000000
H     0.410000000     1.531000000    -4.979000000
C    -0.230000000     3.046000000    -3.595000000
O     1.125000000     3.462000000    -3.357000000
C     1.511000000     3.232000000    -1.959000000
H     0.849000000     2.477000000    -1.510000000
C     2.918000000     2.670000000    -1.936000000
C     3.727000000     2.818000000    -0.768000000
H     3.424000000     3.498000000     0.025000000
C     3.380000000     1.879000000    -2.972000000
H     2.653000000     1.527000000    -3.700000000
C     4.612000000     1.233000000    -2.903000000
O     5.079000000     0.335000000    -3.898000000
C     5.329000000     1.317000000    -1.747000000
H     6.189000000     0.674000000    -1.583000000
C     4.902000000     2.108000000    -0.676000000
O     5.637000000     2.062000000     0.457000000
C     5.457000000     2.898000000     1.585000000
C     5.086000000     2.356000000     2.802000000
H     4.884000000     1.291000000     2.880000000
C     5.808000000     4.226000000     1.456000000
H     6.031000000     4.619000000     0.467000000
C     5.588000000     5.047000000     2.606000000
H     5.757000000     6.116000000     2.504000000
C     5.143000000     4.516000000     3.763000000
H     4.993000000     5.165000000     4.622000000
C     4.973000000     3.164000000     3.944000000
O     4.502000000     2.713000000     5.107000000
C     3.272000000     2.081000000     5.081000000
C     3.248000000     0.728000000     5.418000000
H     4.122000000     0.258000000     5.861000000
C     2.101000000     0.006000000     5.202000000
O     2.006000000    -1.322000000     5.605000000
C     0.859000000    -1.860000000     6.081000000
C     0.405000000    -3.028000000     5.499000000
H     0.863000000    -3.431000000     4.599000000
C     0.263000000    -1.249000000     7.183000000
H     0.733000000    -0.397000000     7.666000000
C    -0.942000000    -1.804000000     7.705000000
H    -1.475000000    -1.376000000     8.550000000
C    -1.412000000    -2.991000000     7.095000000
H    -2.323000000    -3.469000000     7.446000000
C    -0.716000000    -3.641000000     6.042000000
O    -1.198000000    -4.811000000     5.421000000
C    -1.514000000    -4.734000000     4.038000000
C    -0.763000000    -5.474000000     3.146000000
H     0.007000000    -6.168000000     3.473000000
C    -0.970000000    -5.294000000     1.812000000
O    -0.150000000    -5.992000000     0.954000000
C    -0.556000000    -6.290000000    -0.298000000
C     0.088000000    -5.769000000    -1.363000000
H     0.913000000    -5.083000000    -1.190000000
C    -1.579000000    -7.165000000    -0.498000000
H    -2.099000000    -7.593000000     0.355000000
C    -1.963000000    -7.451000000    -1.840000000
H    -2.733000000    -8.170000000    -2.108000000
C    -1.214000000    -6.992000000    -2.905000000
H    -1.486000000    -7.182000000    -3.940000000
C    -0.176000000    -6.128000000    -2.625000000
O     0.536000000    -5.603000000    -3.630000000
C     0.491000000    -4.326000000    -4.151000000
C     1.382000000    -3.946000000    -5.164000000
H     2.154000000    -4.612000000    -5.541000000
C     1.289000000    -2.687000000    -5.708000000
O     2.177000000    -2.314000000    -6.626000000
C     2.979000000    -1.144000000    -6.551000000
C     3.222000000    -0.278000000    -7.629000000
H     2.615000000    -0.511000000    -8.500000000
C     3.940000000     0.900000000    -7.472000000
H     4.054000000     1.592000000    -8.303000000
C     4.638000000     1.090000000    -6.250000000
H     5.046000000     2.061000000    -5.979000000
C     4.479000000     0.183000000    -5.176000000
C     3.686000000    -0.997000000    -5.356000000
H     3.765000000    -1.766000000    -4.591000000
C     0.509000000    -1.428000000     1.369000000
H     0.271000000    -1.603000000     2.416000000
C    -0.315000000    -0.514000000     0.696000000
H    -1.139000000    -0.065000000     1.246000000
C    -0.073000000    -0.181000000    -0.652000000
H    -0.652000000     0.591000000    -1.052000000
C     0.909000000    -0.815000000    -1.342000000
H     1.184000000    -0.594000000    -2.370000000
C     1.624000000    -1.866000000    -0.764000000
H     2.350000000    -2.394000000    -1.378000000
C     1.450000000    -2.190000000     0.630000000
C     2.235000000    -3.294000000     1.303000000
O     2.652000000    -4.196000000     0.596000000
O     2.619000000    -3.208000000     2.451000000
O     2.318000000    -5.327000000     3.868000000
H     2.435000000    -6.052000000     3.255000000
H     2.455000000    -4.541000000     3.339000000
O     6.131000000    -3.743000000    -4.329000000
H     5.922000000    -3.104000000    -3.649000000
H     5.961000000    -4.592000000    -3.921000000
O     3.700000000    -5.017000000     6.131000000
H     3.389000000    -5.025000000     5.225000000
H     4.345000000    -4.310000000     6.156000000
O     8.261000000    -2.690000000    -1.445000000
H     8.561000000    -3.279000000    -2.137000000
H     7.360000000    -2.476000000    -1.686000000
O     4.517000000    -1.531000000     3.095000000
H     4.051000000    -2.309000000     2.788000000
H     3.825000000    -0.935000000     3.382000000
O     5.262000000    -2.726000000     5.396000000
H     6.010000000    -3.182000000     5.011000000
H     4.835000000    -2.297000000     4.655000000
O     0.721000000    -9.253000000     2.095000000
H     0.099000000    -9.304000000     2.821000000
H     0.880000000    -8.316000000     1.981000000
O     4.615000000    -8.227000000     2.702000000
H     3.869000000    -7.778000000     2.304000000
H     5.227000000    -8.362000000     1.979000000
O     0.902000000    -6.633000000     5.955000000
H     1.691000000    -6.215000000     5.610000000
H     0.235000000    -5.947000000     5.925000000
O     2.633000000    -6.618000000     1.532000000
H     2.712000000    -5.739000000     1.163000000
H     2.931000000    -7.200000000     0.833000000
O     3.631000000    -4.626000000    -2.522000000
H     2.825000000    -4.845000000    -2.056000000
H     3.998000000    -3.889000000    -2.032000000
O     6.125000000    -1.922000000     0.494000000
H     5.716000000    -1.792000000     1.349000000
H     6.814000000    -1.259000000     0.455000000
O     5.191000000    -4.535000000     0.151000000
H     5.446000000    -3.623000000     0.288000000
H     4.252000000    -4.553000000     0.335000000
O     7.008000000    -6.017000000    -1.356000000
H     6.686000000    -5.617000000    -0.548000000
H     7.844000000    -6.414000000    -1.110000000
O     6.838000000    -5.080000000     4.702000000
H     6.925000000    -5.259000000     3.765000000
H     7.692000000    -5.305000000     5.069000000
O     4.794000000    -7.898000000     5.617000000
H     4.629000000    -6.955000000     5.617000000
H     4.835000000    -8.134000000     4.690000000
O     4.357000000    -7.597000000    -0.462000000
H     4.736000000    -6.721000000    -0.525000000
H     5.027000000    -8.175000000    -0.829000000
O     5.380000000    -2.166000000    -2.363000000
H     5.460000000    -2.105000000    -1.411000000
H     4.957000000    -1.346000000    -2.620000000
O     6.890000000    -5.672000000     2.105000000
H     7.671000000    -5.234000000     1.767000000
H     6.182000000    -5.373000000     1.535000000
