215
-1430.01270
C     2.213000000     0.751000000     4.246000000
H     1.297000000     0.293000000     4.612000000
C     2.238000000     1.939000000     3.413000000
C     3.428000000     2.464000000     3.031000000
H     3.494000000     3.333000000     2.382000000
C     0.907000000     2.535000000     2.998000000
O    -0.072000000     2.316000000     4.007000000
H     0.652000000     2.028000000     2.055000000
O     1.006000000     3.911000000     2.811000000
C     0.344000000     4.450000000     1.734000000
C     1.029000000     4.469000000     0.559000000
H     2.108000000     4.343000000     0.603000000
C     0.445000000     4.671000000    -0.689000000
O     1.328000000     4.489000000    -1.792000000
C    -0.955000000     4.862000000    -0.794000000
C    -1.632000000     4.978000000    -2.106000000
H    -2.574000000     5.526000000    -2.035000000
C    -1.902000000     3.562000000    -2.713000000
C    -3.103000000     2.886000000    -2.370000000
H    -3.853000000     3.304000000    -1.704000000
H    -1.032000000     5.570000000    -2.800000000
C    -1.614000000     4.701000000     0.409000000
H    -2.694000000     4.826000000     0.447000000
C    -1.042000000     4.582000000     1.694000000
C    -1.918000000     4.347000000     2.886000000
H    -2.851000000     4.913000000     2.921000000
H    -1.344000000     4.687000000     3.751000000
C    -2.255000000     2.876000000     3.014000000
C    -3.550000000     2.459000000     2.723000000
H    -4.255000000     3.200000000     2.355000000
C    -1.387000000     1.940000000     3.625000000
C    -1.887000000     0.736000000     4.001000000
H    -1.219000000     0.105000000     4.582000000
C    -3.073000000     0.288000000     3.503000000
O    -3.371000000    -1.052000000     3.748000000
C    -3.108000000    -2.023000000     2.750000000
C    -2.355000000    -3.301000000     3.231000000
C    -2.404000000    -4.435000000     2.494000000
H    -3.033000000    -4.469000000     1.608000000
C    -1.504000000    -3.238000000     4.294000000
H    -1.438000000    -2.314000000     4.862000000
O    -4.331000000    -2.313000000     1.969000000
H    -2.456000000    -1.510000000     2.027000000
C    -3.971000000     1.137000000     2.835000000
C    -5.238000000     0.572000000     2.245000000
H    -6.009000000     1.335000000     2.121000000
H    -5.606000000    -0.077000000     3.042000000
C    -4.999000000    -0.189000000     0.917000000
C    -5.128000000     0.532000000    -0.305000000
H    -5.349000000     1.587000000    -0.160000000
C    -4.565000000    -1.517000000     0.866000000
C    -4.118000000    -2.029000000    -0.304000000
H    -3.703000000    -3.033000000    -0.319000000
C    -4.193000000    -1.322000000    -1.494000000
O    -3.627000000    -1.792000000    -2.622000000
C    -2.357000000    -1.226000000    -3.082000000
C    -1.416000000    -2.328000000    -3.603000000
C    -1.412000000    -3.559000000    -3.020000000
H    -2.022000000    -3.631000000    -2.123000000
C    -0.602000000    -2.108000000    -4.660000000
H    -0.554000000    -1.118000000    -5.105000000
O    -2.603000000    -0.274000000    -4.106000000
H    -1.798000000    -0.731000000    -2.275000000
C    -4.662000000     0.028000000    -1.491000000
C    -4.736000000     0.961000000    -2.729000000
H    -5.556000000     1.663000000    -2.566000000
H    -4.882000000     0.191000000    -3.490000000
C    -3.430000000     1.647000000    -2.970000000
C    -2.481000000     1.077000000    -3.765000000
C    -1.242000000     1.659000000    -4.049000000
H    -0.496000000     1.077000000    -4.585000000
C    -0.985000000     2.909000000    -3.512000000
O     0.291000000     3.438000000    -3.699000000
C     1.210000000     3.257000000    -2.548000000
H     0.718000000     2.494000000    -1.927000000
C     2.604000000     2.756000000    -3.024000000
C     3.649000000     2.728000000    -2.073000000
H     3.442000000     2.996000000    -1.040000000
C     2.773000000     2.032000000    -4.191000000
H     1.950000000     1.830000000    -4.872000000
C     3.968000000     1.320000000    -4.448000000
O     4.160000000     0.881000000    -5.717000000
C     5.003000000     1.436000000    -3.584000000
H     5.974000000     1.014000000    -3.830000000
C     4.832000000     2.041000000    -2.383000000
O     5.829000000     1.892000000    -1.497000000
C     6.010000000     2.748000000    -0.444000000
C     5.798000000     2.201000000     0.792000000
H     5.304000000     1.236000000     0.876000000
C     6.634000000     3.940000000    -0.645000000
H     6.705000000     4.387000000    -1.633000000
C     6.980000000     4.697000000     0.508000000
H     7.453000000     5.673000000     0.436000000
C     6.673000000     4.208000000     1.792000000
H     6.920000000     4.797000000     2.671000000
C     6.197000000     2.884000000     1.913000000
O     5.910000000     2.373000000     3.147000000
C     4.657000000     1.961000000     3.520000000
C     4.641000000     0.705000000     4.133000000
H     5.574000000     0.158000000     4.241000000
C     3.423000000     0.127000000     4.560000000
O     3.454000000    -1.143000000     5.109000000
C     2.487000000    -1.668000000     5.965000000
C     1.880000000    -2.806000000     5.513000000
H     2.100000000    -3.063000000     4.480000000
C     2.055000000    -1.048000000     7.153000000
H     2.534000000    -0.138000000     7.506000000
C     1.015000000    -1.575000000     7.909000000
H     0.677000000    -1.163000000     8.857000000
C     0.342000000    -2.693000000     7.419000000
H    -0.349000000    -3.185000000     8.099000000
C     0.827000000    -3.303000000     6.198000000
O     0.177000000    -4.402000000     5.694000000
C    -0.793000000    -4.385000000     4.658000000
C    -0.856000000    -5.548000000     3.934000000
H    -0.156000000    -6.349000000     4.162000000
C    -1.623000000    -5.557000000     2.806000000
O    -1.634000000    -6.722000000     2.055000000
C    -1.823000000    -6.731000000     0.656000000
C    -0.911000000    -6.150000000    -0.228000000
H    -0.058000000    -5.686000000     0.259000000
C    -3.022000000    -7.223000000     0.099000000
H    -3.773000000    -7.666000000     0.747000000
C    -3.296000000    -7.213000000    -1.252000000
H    -4.226000000    -7.650000000    -1.608000000
C    -2.305000000    -6.739000000    -2.137000000
H    -2.538000000    -6.718000000    -3.199000000
C    -1.130000000    -6.192000000    -1.575000000
O    -0.222000000    -5.535000000    -2.373000000
C    -0.424000000    -4.471000000    -3.243000000
C     0.373000000    -4.265000000    -4.393000000
H     0.982000000    -5.112000000    -4.700000000
C     0.299000000    -3.087000000    -5.078000000
O     1.081000000    -2.876000000    -6.183000000
C     1.566000000    -1.683000000    -6.610000000
C     0.989000000    -1.072000000    -7.702000000
H     0.076000000    -1.464000000    -8.144000000
C     1.418000000     0.147000000    -8.106000000
H     1.032000000     0.582000000    -9.025000000
C     2.439000000     0.832000000    -7.416000000
H     2.670000000     1.839000000    -7.755000000
C     3.087000000     0.163000000    -6.386000000
C     2.656000000    -1.064000000    -6.006000000
H     3.096000000    -1.579000000    -5.156000000
C     3.111000000    -1.673000000     2.077000000
H     3.353000000    -2.204000000     2.993000000
C     1.807000000    -1.274000000     1.651000000
H     0.886000000    -1.431000000     2.207000000
C     1.583000000    -0.709000000     0.399000000
H     0.556000000    -0.550000000    -0.006000000
C     2.708000000    -0.460000000    -0.431000000
H     2.547000000     0.036000000    -1.385000000
C     4.036000000    -0.835000000    -0.006000000
H     4.876000000    -0.457000000    -0.584000000
C     4.205000000    -1.483000000     1.242000000
C     5.602000000    -1.908000000     1.681000000
O     6.504000000    -1.691000000     0.870000000
O     5.811000000    -2.453000000     2.711000000
O     6.046000000    -4.823000000     3.911000000
H     5.832000000    -5.555000000     3.333000000
H     5.913000000    -4.044000000     3.369000000
O     7.800000000    -1.635000000     4.177000000
H     7.459000000    -1.171000000     4.942000000
H     7.025000000    -1.827000000     3.649000000
O    10.050000000    -1.998000000     0.602000000
H     9.667000000    -1.244000000     1.051000000
H     9.625000000    -2.756000000     1.003000000
O     8.236000000     0.032000000     2.038000000
H     8.255000000    -0.193000000     2.968000000
H     7.476000000    -0.437000000     1.693000000
O     8.643000000    -3.851000000     6.071000000
H     8.009000000    -4.423000000     5.640000000
H     8.114000000    -3.151000000     6.455000000
O    10.274000000    -2.613000000     3.968000000
H    10.223000000    -2.855000000     4.893000000
H     9.386000000    -2.335000000     3.744000000
O     6.370000000    -4.976000000    -0.826000000
H     6.829000000    -4.455000000    -0.168000000
H     5.873000000    -4.335000000    -1.335000000
O     9.352000000    -3.340000000    -2.182000000
H     8.698000000    -2.815000000    -1.722000000
H    10.115000000    -2.767000000    -2.252000000
O     4.108000000    -6.152000000     0.170000000
H     3.381000000    -5.530000000     0.188000000
H     4.862000000    -5.630000000    -0.105000000
O     5.591000000    -3.519000000     6.199000000
H     4.984000000    -2.831000000     5.927000000
H     5.975000000    -3.837000000     5.382000000
O     7.751000000    -1.281000000    -1.657000000
H     7.520000000    -1.421000000    -0.739000000
H     7.828000000    -0.331000000    -1.742000000
O     7.045000000    -6.161000000     6.031000000
H     7.484000000    -6.943000000     5.696000000
H     6.454000000    -5.898000000     5.324000000
O     9.778000000     1.817000000     0.710000000
H    10.675000000     2.108000000     0.877000000
H     9.652000000     1.076000000     1.303000000
O     7.736000000    -4.097000000     1.269000000
H     8.261000000    -4.182000000     2.065000000
H     7.105000000    -3.406000000     1.471000000
O     2.657000000    -3.717000000     0.043000000
H     2.926000000    -2.799000000     0.009000000
H     2.113000000    -3.778000000     0.828000000
O     5.282000000    -7.017000000     2.441000000
H     4.902000000    -7.040000000     1.562000000
H     4.647000000    -7.479000000     2.988000000
O     4.507000000    -3.636000000    -2.360000000
H     3.831000000    -3.067000000    -1.992000000
H     4.552000000    -3.388000000    -3.283000000
O     8.610000000     1.261000000    -1.568000000
H     7.714000000     1.571000000    -1.436000000
H     9.086000000     1.567000000    -0.796000000
O     0.900000000    -4.374000000     1.997000000
H     1.172000000    -5.257000000     2.249000000
H     0.116000000    -4.206000000     2.519000000
