215
-1445.50089
C     0.387000000     1.373000000     5.676000000
H    -0.601000000     0.935000000     5.799000000
C     0.643000000     2.242000000     4.609000000
C     1.946000000     2.597000000     4.366000000
H     2.139000000     3.300000000     3.559000000
C    -0.450000000     2.678000000     3.602000000
O    -1.755000000     2.212000000     4.069000000
H    -0.178000000     2.066000000     2.729000000
O    -0.386000000     4.057000000     3.233000000
C    -0.687000000     4.330000000     1.923000000
C     0.365000000     4.438000000     0.998000000
H     1.369000000     4.317000000     1.396000000
C     0.108000000     4.471000000    -0.375000000
O     1.159000000     4.526000000    -1.321000000
C    -1.194000000     4.476000000    -0.896000000
C    -1.535000000     4.700000000    -2.383000000
H    -2.464000000     5.264000000    -2.486000000
C    -1.614000000     3.451000000    -3.212000000
C    -2.800000000     2.666000000    -3.288000000
H    -3.754000000     3.012000000    -2.899000000
H    -0.705000000     5.327000000    -2.714000000
C    -2.190000000     4.337000000     0.003000000
H    -3.183000000     4.251000000    -0.429000000
C    -2.005000000     4.226000000     1.392000000
C    -3.271000000     3.876000000     2.260000000
H    -4.090000000     4.375000000     1.738000000
H    -3.186000000     4.328000000     3.250000000
C    -3.495000000     2.396000000     2.373000000
C    -4.470000000     1.721000000     1.590000000
H    -5.089000000     2.336000000     0.941000000
C    -2.679000000     1.601000000     3.247000000
C    -2.886000000     0.260000000     3.392000000
H    -2.329000000    -0.291000000     4.146000000
C    -3.837000000    -0.349000000     2.547000000
O    -3.946000000    -1.700000000     2.622000000
C    -3.168000000    -2.436000000     1.621000000
C    -2.236000000    -3.418000000     2.174000000
C    -1.678000000    -4.407000000     1.393000000
H    -1.978000000    -4.466000000     0.350000000
C    -1.725000000    -3.249000000     3.426000000
H    -2.158000000    -2.466000000     4.044000000
O    -4.070000000    -2.945000000     0.639000000
H    -2.422000000    -1.793000000     1.131000000
C    -4.603000000     0.360000000     1.705000000
C    -5.685000000    -0.348000000     0.820000000
H    -6.400000000     0.407000000     0.486000000
H    -6.169000000    -1.168000000     1.355000000
C    -4.970000000    -0.890000000    -0.428000000
C    -4.844000000    -0.053000000    -1.559000000
H    -5.280000000     0.940000000    -1.472000000
C    -4.298000000    -2.118000000    -0.508000000
C    -3.579000000    -2.442000000    -1.611000000
H    -3.043000000    -3.386000000    -1.668000000
C    -3.406000000    -1.608000000    -2.711000000
O    -2.598000000    -2.012000000    -3.741000000
C    -1.348000000    -1.373000000    -3.883000000
C    -0.158000000    -2.234000000    -4.245000000
C     0.128000000    -3.434000000    -3.495000000
H    -0.617000000    -3.765000000    -2.776000000
C     0.766000000    -1.893000000    -5.229000000
H     0.559000000    -1.028000000    -5.855000000
O    -1.459000000    -0.283000000    -4.850000000
H    -1.038000000    -0.870000000    -2.955000000
C    -4.105000000    -0.393000000    -2.706000000
C    -4.100000000     0.640000000    -3.809000000
H    -4.987000000     1.268000000    -3.707000000
H    -4.154000000     0.122000000    -4.769000000
C    -2.807000000     1.417000000    -3.842000000
C    -1.544000000     0.961000000    -4.373000000
C    -0.374000000     1.655000000    -4.273000000
H     0.507000000     1.094000000    -4.574000000
C    -0.396000000     2.904000000    -3.674000000
O     0.843000000     3.461000000    -3.435000000
C     1.312000000     3.297000000    -2.082000000
H     0.677000000     2.589000000    -1.529000000
C     2.756000000     2.705000000    -2.041000000
C     3.348000000     2.471000000    -0.797000000
H     2.825000000     2.843000000     0.079000000
C     3.439000000     2.307000000    -3.186000000
H     3.065000000     2.506000000    -4.187000000
C     4.670000000     1.673000000    -3.070000000
O     5.267000000     1.443000000    -4.278000000
C     5.280000000     1.484000000    -1.809000000
H     6.274000000     1.044000000    -1.840000000
C     4.627000000     1.924000000    -0.669000000
O     5.108000000     1.677000000     0.582000000
C     5.155000000     2.627000000     1.541000000
C     4.563000000     2.301000000     2.728000000
H     4.040000000     1.354000000     2.837000000
C     5.804000000     3.788000000     1.415000000
H     6.225000000     4.068000000     0.453000000
C     5.868000000     4.680000000     2.426000000
H     6.295000000     5.671000000     2.289000000
C     5.404000000     4.384000000     3.647000000
H     5.470000000     5.094000000     4.468000000
C     4.843000000     3.135000000     3.837000000
O     4.280000000     2.866000000     5.039000000
C     3.032000000     2.274000000     5.195000000
C     2.760000000     1.323000000     6.182000000
H     3.600000000     0.971000000     6.775000000
C     1.476000000     0.878000000     6.413000000
O     1.238000000    -0.061000000     7.345000000
C     0.222000000    -0.977000000     7.191000000
C     0.467000000    -1.977000000     6.298000000
H     1.334000000    -1.996000000     5.642000000
C    -0.955000000    -0.883000000     7.993000000
H    -1.030000000    -0.053000000     8.690000000
C    -1.841000000    -1.942000000     7.853000000
H    -2.745000000    -2.097000000     8.436000000
C    -1.641000000    -2.892000000     6.838000000
H    -2.338000000    -3.649000000     6.487000000
C    -0.474000000    -2.932000000     6.110000000
O    -0.238000000    -3.964000000     5.238000000
C    -0.698000000    -4.040000000     3.917000000
C    -0.154000000    -5.065000000     3.128000000
H     0.565000000    -5.768000000     3.541000000
C    -0.638000000    -5.231000000     1.811000000
O    -0.069000000    -6.247000000     1.089000000
C    -0.315000000    -6.401000000    -0.224000000
C     0.516000000    -5.841000000    -1.164000000
H     1.465000000    -5.328000000    -1.028000000
C    -1.443000000    -7.107000000    -0.631000000
H    -2.110000000    -7.408000000     0.173000000
C    -1.695000000    -7.383000000    -2.005000000
H    -2.588000000    -7.970000000    -2.207000000
C    -0.773000000    -6.892000000    -2.900000000
H    -0.872000000    -7.102000000    -3.961000000
C     0.273000000    -6.091000000    -2.488000000
O     1.154000000    -5.610000000    -3.404000000
C     1.160000000    -4.292000000    -3.766000000
C     2.028000000    -3.873000000    -4.763000000
H     2.797000000    -4.604000000    -4.998000000
C     1.939000000    -2.633000000    -5.374000000
O     2.879000000    -2.244000000    -6.293000000
C     3.400000000    -0.957000000    -6.423000000
C     3.711000000    -0.497000000    -7.706000000
H     3.416000000    -1.007000000    -8.620000000
C     4.435000000     0.711000000    -7.810000000
H     4.815000000     1.149000000    -8.729000000
C     4.809000000     1.346000000    -6.605000000
H     5.452000000     2.220000000    -6.672000000
C     4.625000000     0.814000000    -5.373000000
C     3.883000000    -0.327000000    -5.262000000
H     3.884000000    -0.785000000    -4.276000000
C     1.168000000    -1.691000000     1.175000000
H     1.539000000    -2.347000000     1.958000000
C     0.134000000    -0.784000000     1.425000000
H    -0.351000000    -0.693000000     2.394000000
C    -0.385000000     0.051000000     0.439000000
H    -1.076000000     0.834000000     0.697000000
C     0.135000000    -0.037000000    -0.836000000
H    -0.398000000     0.524000000    -1.600000000
C     1.141000000    -0.989000000    -1.093000000
H     1.386000000    -1.070000000    -2.149000000
C     1.798000000    -1.721000000    -0.101000000
C     3.089000000    -2.508000000    -0.262000000
O     3.521000000    -2.585000000    -1.365000000
O     3.623000000    -3.176000000     0.640000000
O     2.780000000    -3.797000000     4.143000000
H     3.682000000    -3.682000000     3.842000000
H     2.253000000    -3.747000000     3.346000000
O     5.631000000    -3.584000000    -4.649000000
H     5.445000000    -2.751000000    -4.215000000
H     6.582000000    -3.588000000    -4.761000000
O     9.189000000    -2.679000000    -1.429000000
H     9.784000000    -2.488000000    -2.154000000
H     8.600000000    -3.350000000    -1.773000000
O     6.583000000    -8.170000000     0.421000000
H     6.370000000    -8.167000000     1.354000000
H     6.199000000    -7.359000000     0.085000000
O     4.991000000    -2.884000000     2.929000000
H     4.599000000    -3.369000000     2.202000000
H     5.090000000    -1.992000000     2.595000000
O     8.763000000     0.410000000    -3.249000000
H     8.823000000     0.801000000    -2.377000000
H     7.976000000    -0.134000000    -3.213000000
O     5.155000000    -2.093000000     6.051000000
H     6.054000000    -2.266000000     5.771000000
H     4.738000000    -1.697000000     5.287000000
O     2.099000000    -8.656000000     1.731000000
H     1.359000000    -8.886000000     2.293000000
H     1.857000000    -7.812000000     1.349000000
O     4.058000000    -7.476000000     3.544000000
H     3.554000000    -7.937000000     2.872000000
H     4.222000000    -6.611000000     3.169000000
O     4.017000000    -5.519000000     1.643000000
H     3.779000000    -4.642000000     1.344000000
H     3.828000000    -6.087000000     0.896000000
O     4.198000000    -5.086000000    -2.674000000
H     3.682000000    -4.383000000    -2.279000000
H     4.778000000    -4.640000000    -3.291000000
O     6.231000000    -0.316000000     2.110000000
H     5.834000000     0.351000000     1.550000000
H     7.165000000    -0.111000000     2.101000000
O     6.307000000    -2.815000000     0.263000000
H     6.535000000    -2.035000000     0.769000000
H     5.350000000    -2.821000000     0.251000000
O     7.164000000    -4.853000000    -1.331000000
H     6.920000000    -4.100000000    -0.793000000
H     6.329000000    -5.216000000    -1.627000000
O     7.282000000    -3.574000000     4.082000000
H     6.538000000    -3.157000000     3.648000000
H     6.908000000    -4.342000000     4.513000000
O     3.390000000    -7.087000000    -0.747000000
H     3.685000000    -6.830000000    -1.621000000
H     3.708000000    -7.983000000    -0.641000000
O     4.631000000    -6.698000000    -5.083000000
H     5.301000000    -7.380000000    -5.031000000
H     4.099000000    -6.826000000    -4.298000000
O     5.606000000    -1.429000000    -2.359000000
H     4.710000000    -1.676000000    -2.131000000
H     6.142000000    -1.805000000    -1.660000000
O     6.901000000    -5.493000000     1.724000000
H     6.826000000    -4.586000000     2.021000000
H     6.022000000    -5.854000000     1.832000000
