215
-1441.47615
C     0.187000000     0.107000000     5.364000000
H    -0.852000000    -0.203000000     5.434000000
C     0.574000000     1.188000000     4.640000000
C     1.930000000     1.572000000     4.541000000
H     2.291000000     2.415000000     3.957000000
C    -0.544000000     1.915000000     3.818000000
O    -1.859000000     1.631000000     4.314000000
H    -0.511000000     1.491000000     2.804000000
O    -0.367000000     3.369000000     3.718000000
C    -0.576000000     3.961000000     2.483000000
C     0.519000000     4.129000000     1.654000000
H     1.518000000     3.956000000     2.046000000
C     0.334000000     4.662000000     0.356000000
O     1.472000000     4.860000000    -0.290000000
C    -0.993000000     4.903000000    -0.178000000
C    -1.214000000     5.368000000    -1.650000000
H    -2.115000000     5.964000000    -1.808000000
C    -1.185000000     4.198000000    -2.631000000
C    -2.341000000     3.472000000    -2.939000000
H    -3.314000000     3.858000000    -2.644000000
H    -0.363000000     6.038000000    -1.790000000
C    -2.066000000     4.573000000     0.620000000
H    -3.077000000     4.684000000     0.235000000
C    -1.848000000     4.089000000     1.941000000
C    -3.018000000     3.747000000     2.774000000
H    -3.937000000     4.300000000     2.571000000
H    -2.976000000     3.897000000     3.854000000
C    -3.331000000     2.222000000     2.547000000
C    -4.128000000     1.818000000     1.495000000
H    -4.462000000     2.519000000     0.734000000
C    -2.787000000     1.270000000     3.426000000
C    -2.973000000    -0.052000000     3.177000000
H    -2.464000000    -0.827000000     3.744000000
C    -3.880000000    -0.458000000     2.262000000
O    -3.865000000    -1.844000000     2.106000000
C    -3.064000000    -2.388000000     1.061000000
C    -2.520000000    -3.726000000     1.561000000
C    -2.209000000    -4.764000000     0.626000000
H    -2.438000000    -4.680000000    -0.434000000
C    -2.008000000    -3.860000000     2.873000000
H    -2.013000000    -2.979000000     3.510000000
O    -3.877000000    -2.554000000    -0.112000000
H    -2.153000000    -1.809000000     0.849000000
C    -4.505000000     0.446000000     1.427000000
C    -5.479000000     0.079000000     0.318000000
H    -6.161000000     0.854000000    -0.038000000
H    -6.065000000    -0.770000000     0.675000000
C    -4.686000000    -0.237000000    -0.872000000
C    -4.512000000     0.741000000    -1.892000000
H    -4.929000000     1.743000000    -1.829000000
C    -3.947000000    -1.452000000    -1.045000000
C    -3.309000000    -1.751000000    -2.195000000
H    -2.819000000    -2.718000000    -2.267000000
C    -3.313000000    -0.815000000    -3.241000000
O    -2.391000000    -1.057000000    -4.203000000
C    -0.995000000    -0.547000000    -4.068000000
C     0.077000000    -1.548000000    -4.437000000
C    -0.065000000    -2.865000000    -4.050000000
H    -0.977000000    -3.167000000    -3.541000000
C     1.285000000    -1.134000000    -5.020000000
H     1.459000000    -0.094000000    -5.286000000
O    -0.744000000     0.693000000    -4.761000000
H    -0.902000000    -0.319000000    -2.996000000
C    -3.842000000     0.434000000    -3.078000000
C    -3.516000000     1.476000000    -4.146000000
H    -4.341000000     2.192000000    -4.158000000
H    -3.480000000     1.183000000    -5.198000000
C    -2.302000000     2.308000000    -3.748000000
C    -0.998000000     1.888000000    -4.082000000
C     0.197000000     2.535000000    -3.801000000
H     1.195000000     2.148000000    -3.989000000
C     0.059000000     3.741000000    -3.182000000
O     1.243000000     4.382000000    -2.766000000
C     1.814000000     3.983000000    -1.428000000
H     1.229000000     3.073000000    -1.228000000
C     3.292000000     3.420000000    -1.533000000
C     3.926000000     2.891000000    -0.365000000
H     3.381000000     2.861000000     0.575000000
C     3.897000000     3.124000000    -2.748000000
H     3.424000000     3.390000000    -3.690000000
C     5.168000000     2.524000000    -2.767000000
O     5.717000000     2.055000000    -3.954000000
C     5.850000000     2.196000000    -1.562000000
H     6.717000000     1.541000000    -1.542000000
C     5.200000000     2.377000000    -0.306000000
O     5.660000000     1.759000000     0.819000000
C     5.382000000     2.334000000     2.058000000
C     4.941000000     1.522000000     3.079000000
H     4.664000000     0.474000000     2.993000000
C     5.398000000     3.764000000     2.259000000
H     5.714000000     4.484000000     1.507000000
C     5.146000000     4.265000000     3.573000000
H     5.276000000     5.314000000     3.826000000
C     4.745000000     3.432000000     4.565000000
H     4.444000000     3.971000000     5.460000000
C     4.656000000     2.065000000     4.340000000
O     4.197000000     1.224000000     5.338000000
C     2.848000000     0.881000000     5.354000000
C     2.457000000    -0.174000000     6.145000000
H     3.157000000    -0.611000000     6.852000000
C     1.138000000    -0.597000000     6.101000000
O     0.602000000    -1.501000000     7.069000000
C    -0.397000000    -2.439000000     6.860000000
C    -0.250000000    -3.330000000     5.815000000
H     0.582000000    -3.223000000     5.124000000
C    -1.448000000    -2.529000000     7.754000000
H    -1.439000000    -1.838000000     8.593000000
C    -2.330000000    -3.616000000     7.707000000
H    -3.068000000    -3.752000000     8.493000000
C    -2.154000000    -4.565000000     6.708000000
H    -2.855000000    -5.391000000     6.615000000
C    -1.246000000    -4.322000000     5.706000000
O    -1.109000000    -5.265000000     4.692000000
C    -1.413000000    -5.057000000     3.367000000
C    -1.160000000    -6.061000000     2.414000000
H    -0.740000000    -6.990000000     2.789000000
C    -1.409000000    -5.831000000     1.057000000
O    -0.961000000    -6.768000000     0.162000000
C    -1.053000000    -6.652000000    -1.207000000
C    -0.111000000    -5.912000000    -1.907000000
H     0.704000000    -5.498000000    -1.319000000
C    -2.220000000    -7.051000000    -1.875000000
H    -3.026000000    -7.511000000    -1.309000000
C    -2.330000000    -6.988000000    -3.268000000
H    -3.230000000    -7.362000000    -3.750000000
C    -1.271000000    -6.371000000    -4.017000000
H    -1.422000000    -6.262000000    -5.088000000
C    -0.180000000    -5.762000000    -3.311000000
O     0.780000000    -5.162000000    -4.091000000
C     0.909000000    -3.837000000    -4.411000000
C     2.118000000    -3.375000000    -4.990000000
H     2.978000000    -3.990000000    -5.242000000
C     2.212000000    -2.048000000    -5.299000000
O     3.426000000    -1.697000000    -5.892000000
C     3.898000000    -0.419000000    -5.941000000
C     3.966000000     0.232000000    -7.191000000
H     3.594000000    -0.256000000    -8.088000000
C     4.431000000     1.562000000    -7.305000000
H     4.399000000     2.030000000    -8.286000000
C     4.950000000     2.188000000    -6.176000000
H     5.210000000     3.241000000    -6.248000000
C     4.965000000     1.504000000    -4.975000000
C     4.397000000     0.240000000    -4.818000000
H     4.478000000    -0.257000000    -3.855000000
C     2.931000000    -1.200000000     1.281000000
H     3.457000000    -1.427000000     2.205000000
C     2.193000000    -0.057000000     1.074000000
H     1.895000000     0.594000000     1.892000000
C     1.581000000     0.242000000    -0.127000000
H     1.077000000     1.138000000    -0.261000000
C     1.864000000    -0.595000000    -1.205000000
H     1.402000000    -0.356000000    -2.159000000
C     2.566000000    -1.733000000    -1.014000000
H     2.741000000    -2.317000000    -1.914000000
C     3.166000000    -2.080000000     0.230000000
C     4.038000000    -3.243000000     0.382000000
O     4.286000000    -3.960000000    -0.566000000
O     4.712000000    -3.359000000     1.366000000
O     2.990000000    -3.762000000     3.720000000
H     2.684000000    -4.629000000     3.453000000
H     3.107000000    -3.286000000     2.899000000
O     3.437000000    -3.325000000     6.300000000
H     4.309000000    -3.714000000     6.228000000
H     3.145000000    -3.223000000     5.394000000
O     9.385000000    -4.376000000    -1.297000000
H     8.604000000    -3.824000000    -1.336000000
H     9.496000000    -4.698000000    -2.192000000
O     5.685000000    -4.530000000     5.706000000
H     6.618000000    -4.354000000     5.584000000
H     5.370000000    -4.762000000     4.832000000
O     5.545000000    -1.989000000     3.546000000
H     5.260000000    -2.549000000     4.268000000
H     5.314000000    -2.479000000     2.757000000
O     9.436000000    -0.067000000    -0.286000000
H     8.723000000    -0.662000000    -0.054000000
H     9.148000000     0.788000000     0.034000000
O     0.989000000    -8.791000000    -0.170000000
H     0.673000000    -8.934000000     0.722000000
H     1.217000000    -7.861000000    -0.196000000
O     2.951000000    -6.242000000    -0.178000000
H     3.598000000    -5.537000000    -0.172000000
H     2.819000000    -6.437000000    -1.106000000
O     3.283000000    -6.528000000     2.629000000
H     3.228000000    -7.440000000     2.912000000
H     3.048000000    -6.551000000     1.701000000
O     5.348000000    -5.238000000    -2.700000000
H     5.222000000    -4.504000000    -2.099000000
H     5.906000000    -4.886000000    -3.394000000
O     8.544000000    -6.295000000     2.504000000
H     7.708000000    -5.830000000     2.463000000
H     8.551000000    -6.697000000     3.373000000
O     7.067000000    -0.789000000     1.187000000
H     6.593000000    -1.015000000     1.988000000
H     6.541000000    -0.097000000     0.786000000
O     7.039000000    -3.162000000    -0.354000000
H     7.131000000    -2.435000000     0.262000000
H     6.163000000    -3.508000000    -0.185000000
O     7.485000000    -6.021000000    -0.429000000
H     7.076000000    -5.156000000    -0.430000000
H     8.425000000    -5.842000000    -0.391000000
O     6.918000000    -0.407000000     5.246000000
H     6.564000000    -0.925000000     4.523000000
H     6.188000000    -0.318000000     5.858000000
O     3.097000000    -6.855000000    -2.856000000
H     3.355000000    -5.941000000    -2.980000000
H     3.685000000    -7.349000000    -3.427000000
O     6.130000000    -7.873000000     1.532000000
H     6.538000000    -7.583000000     0.716000000
H     5.358000000    -8.365000000     1.252000000
O     7.728000000    -1.794000000    -2.695000000
H     7.572000000    -2.327000000    -3.475000000
H     7.246000000    -2.241000000    -2.000000000
O     5.945000000    -5.166000000     2.897000000
H     5.670000000    -4.355000000     2.468000000
H     5.277000000    -5.805000000     2.651000000
