215
-1431.02835
C     2.605000000     0.536000000     4.560000000
H     1.776000000     0.315000000     5.229000000
C     2.516000000     1.431000000     3.488000000
C     3.515000000     1.556000000     2.540000000
H     3.403000000     2.282000000     1.739000000
C     1.201000000     2.187000000     3.230000000
O     0.323000000     2.167000000     4.328000000
H     0.735000000     1.629000000     2.405000000
O     1.403000000     3.525000000     2.944000000
C     0.635000000     4.075000000     1.961000000
C     1.256000000     4.386000000     0.768000000
H     2.341000000     4.436000000     0.727000000
C     0.535000000     4.685000000    -0.373000000
O     1.067000000     4.686000000    -1.557000000
C    -0.840000000     4.959000000    -0.266000000
C    -1.654000000     5.319000000    -1.493000000
H    -2.545000000     5.871000000    -1.189000000
C    -2.131000000     4.113000000    -2.196000000
C    -3.326000000     3.433000000    -1.804000000
H    -3.990000000     3.770000000    -1.012000000
H    -1.030000000     5.997000000    -2.079000000
C    -1.462000000     4.743000000     0.982000000
H    -2.532000000     4.863000000     1.132000000
C    -0.691000000     4.341000000     2.110000000
C    -1.431000000     4.077000000     3.420000000
H    -2.277000000     4.765000000     3.366000000
H    -0.917000000     4.319000000     4.353000000
C    -1.865000000     2.662000000     3.579000000
C    -3.155000000     2.255000000     3.259000000
H    -3.883000000     2.978000000     2.902000000
C    -0.967000000     1.751000000     4.100000000
C    -1.269000000     0.437000000     4.328000000
H    -0.537000000    -0.220000000     4.789000000
C    -2.343000000    -0.068000000     3.739000000
O    -2.555000000    -1.413000000     3.842000000
C    -2.419000000    -2.224000000     2.668000000
C    -1.774000000    -3.601000000     2.898000000
C    -1.910000000    -4.626000000     2.013000000
H    -2.607000000    -4.576000000     1.180000000
C    -0.857000000    -3.702000000     4.013000000
H    -0.718000000    -2.852000000     4.676000000
O    -3.732000000    -2.340000000     2.062000000
H    -1.893000000    -1.606000000     1.925000000
C    -3.352000000     0.854000000     3.266000000
C    -4.683000000     0.343000000     2.838000000
H    -5.469000000     1.091000000     2.962000000
H    -4.932000000    -0.431000000     3.567000000
C    -4.645000000    -0.162000000     1.439000000
C    -4.911000000     0.750000000     0.366000000
H    -5.338000000     1.719000000     0.609000000
C    -4.103000000    -1.394000000     1.093000000
C    -3.906000000    -1.755000000    -0.245000000
H    -3.553000000    -2.772000000    -0.396000000
C    -4.180000000    -0.886000000    -1.301000000
O    -3.853000000    -1.349000000    -2.552000000
C    -2.625000000    -0.879000000    -3.080000000
C    -1.962000000    -2.023000000    -3.784000000
C    -2.129000000    -3.386000000    -3.325000000
H    -2.969000000    -3.537000000    -2.651000000
C    -1.025000000    -1.702000000    -4.757000000
H    -0.866000000    -0.681000000    -5.094000000
O    -2.915000000     0.330000000    -3.884000000
H    -1.926000000    -0.552000000    -2.296000000
C    -4.648000000     0.405000000    -0.986000000
C    -4.885000000     1.491000000    -1.994000000
H    -5.650000000     2.249000000    -1.817000000
H    -5.106000000     0.917000000    -2.896000000
C    -3.612000000     2.199000000    -2.357000000
C    -2.843000000     1.596000000    -3.382000000
C    -1.730000000     2.345000000    -3.798000000
H    -1.161000000     1.934000000    -4.628000000
C    -1.356000000     3.547000000    -3.206000000
O    -0.066000000     4.031000000    -3.421000000
C     0.904000000     3.578000000    -2.462000000
H     0.475000000     2.789000000    -1.827000000
C     2.259000000     3.151000000    -2.987000000
C     3.494000000     3.406000000    -2.264000000
H     3.429000000     3.895000000    -1.295000000
C     2.326000000     2.458000000    -4.188000000
H     1.387000000     2.242000000    -4.691000000
C     3.547000000     1.974000000    -4.681000000
O     3.597000000     1.091000000    -5.809000000
C     4.720000000     2.336000000    -4.094000000
H     5.686000000     2.305000000    -4.592000000
C     4.684000000     3.087000000    -2.896000000
O     5.866000000     3.334000000    -2.241000000
C     6.099000000     3.135000000    -0.862000000
C     5.754000000     1.950000000    -0.264000000
H     5.249000000     1.113000000    -0.740000000
C     6.794000000     4.205000000    -0.185000000
H     7.092000000     5.094000000    -0.734000000
C     7.118000000     4.069000000     1.167000000
H     7.811000000     4.787000000     1.597000000
C     6.622000000     2.902000000     1.780000000
H     6.786000000     2.788000000     2.848000000
C     6.037000000     1.903000000     1.072000000
O     5.679000000     0.798000000     1.710000000
C     4.743000000     0.848000000     2.666000000
C     4.811000000     0.002000000     3.785000000
H     5.695000000    -0.617000000     3.912000000
C     3.762000000    -0.230000000     4.648000000
O     4.007000000    -1.090000000     5.665000000
C     3.020000000    -1.912000000     6.147000000
C     2.542000000    -2.977000000     5.272000000
H     2.910000000    -3.081000000     4.254000000
C     2.569000000    -1.843000000     7.418000000
H     2.912000000    -1.074000000     8.105000000
C     1.538000000    -2.690000000     7.807000000
H     1.187000000    -2.649000000     8.835000000
C     1.051000000    -3.713000000     6.945000000
H     0.408000000    -4.516000000     7.296000000
C     1.473000000    -3.795000000     5.678000000
O     1.064000000    -4.821000000     4.914000000
C     0.061000000    -4.712000000     3.999000000
C    -0.099000000    -5.726000000     2.994000000
H     0.597000000    -6.556000000     2.902000000
C    -1.130000000    -5.787000000     2.107000000
O    -1.205000000    -6.839000000     1.126000000
C    -1.975000000    -6.794000000    -0.039000000
C    -1.387000000    -6.324000000    -1.226000000
H    -0.315000000    -6.186000000    -1.341000000
C    -3.335000000    -7.072000000    -0.038000000
H    -3.705000000    -7.300000000     0.958000000
C    -4.152000000    -6.963000000    -1.139000000
H    -5.223000000    -7.142000000    -1.089000000
C    -3.537000000    -6.560000000    -2.286000000
H    -4.144000000    -6.401000000    -3.173000000
C    -2.202000000    -6.174000000    -2.369000000
O    -1.669000000    -5.758000000    -3.572000000
C    -1.413000000    -4.415000000    -3.982000000
C    -0.531000000    -4.081000000    -5.056000000
H    -0.068000000    -4.842000000    -5.679000000
C    -0.304000000    -2.762000000    -5.424000000
O     0.620000000    -2.547000000    -6.382000000
C     1.019000000    -1.314000000    -6.688000000
C     0.191000000    -0.554000000    -7.547000000
H    -0.645000000    -1.039000000    -8.044000000
C     0.590000000     0.739000000    -7.886000000
H     0.129000000     1.271000000    -8.714000000
C     1.655000000     1.290000000    -7.247000000
H     2.070000000     2.271000000    -7.466000000
C     2.472000000     0.564000000    -6.400000000
C     2.159000000    -0.791000000    -6.135000000
H     2.825000000    -1.367000000    -5.497000000
C     2.348000000    -2.332000000     0.693000000
H     2.500000000    -3.102000000     1.445000000
C     1.051000000    -1.874000000     0.433000000
H     0.212000000    -2.342000000     0.940000000
C     0.858000000    -0.846000000    -0.474000000
H    -0.134000000    -0.469000000    -0.602000000
C     1.908000000    -0.332000000    -1.184000000
H     1.821000000     0.508000000    -1.869000000
C     3.229000000    -0.857000000    -0.960000000
H     4.076000000    -0.588000000    -1.587000000
C     3.468000000    -1.823000000     0.013000000
C     4.869000000    -2.517000000     0.132000000
O     5.833000000    -2.165000000    -0.497000000
O     5.103000000    -3.463000000     0.871000000
O    10.056000000    -1.710000000     1.027000000
H     9.152000000    -1.418000000     1.150000000
H    10.196000000    -2.352000000     1.723000000
O     5.328000000    -3.493000000     3.541000000
H     4.617000000    -4.124000000     3.430000000
H     5.547000000    -3.220000000     2.650000000
O     7.458000000    -1.585000000    -4.147000000
H     8.179000000    -1.803000000    -4.738000000
H     7.326000000    -0.645000000    -4.267000000
O     3.549000000    -5.442000000     3.058000000
H     3.364000000    -5.964000000     2.276000000
H     2.803000000    -5.603000000     3.635000000
O     7.568000000    -3.504000000     4.933000000
H     7.950000000    -2.627000000     4.878000000
H     6.804000000    -3.469000000     4.358000000
O     7.463000000    -1.433000000     1.519000000
H     6.950000000    -1.886000000     0.850000000
H     7.223000000    -0.511000000     1.421000000
O     5.730000000    -3.404000000    -2.961000000
H     5.745000000    -2.796000000    -2.222000000
H     6.240000000    -2.966000000    -3.642000000
O     6.493000000    -7.598000000    -2.283000000
H     6.242000000    -6.876000000    -1.707000000
H     6.174000000    -7.337000000    -3.147000000
O     7.538000000    -0.345000000    -1.450000000
H     6.951000000    -0.924000000    -0.964000000
H     8.048000000    -0.934000000    -2.007000000
O     8.517000000    -4.145000000    -2.349000000
H     7.658000000    -4.565000000    -2.400000000
H     8.732000000    -3.930000000    -3.256000000
O     2.027000000    -6.040000000    -3.144000000
H     2.853000000    -5.743000000    -3.525000000
H     1.906000000    -5.486000000    -2.373000000
O     7.746000000     1.269000000    -3.660000000
H     7.406000000     1.197000000    -2.769000000
H     7.631000000     2.192000000    -3.887000000
O     5.735000000    -5.400000000    -0.917000000
H     5.498000000    -4.912000000    -0.128000000
H     5.542000000    -4.800000000    -1.637000000
O     8.982000000    -5.888000000     0.040000000
H     8.888000000    -5.181000000    -0.599000000
H     8.252000000    -5.761000000     0.646000000
O     1.613000000    -2.976000000    -2.734000000
H     1.835000000    -2.087000000    -2.459000000
H     0.934000000    -3.254000000    -2.119000000
O     7.396000000    -4.640000000     1.938000000
H     6.455000000    -4.475000000     1.996000000
H     7.765000000    -3.816000000     1.619000000
O     3.665000000    -3.881000000    -4.374000000
H     2.839000000    -3.595000000    -3.983000000
H     4.334000000    -3.609000000    -3.745000000
O     9.477000000     1.747000000    -0.512000000
H     8.792000000     1.149000000    -0.811000000
H    10.068000000     1.196000000     0.001000000
O     2.252000000    -5.040000000    -0.726000000
H     2.306000000    -5.678000000    -0.014000000
H     2.712000000    -4.270000000    -0.393000000
