215
-1438.24371
C     2.482000000     0.399000000     4.455000000
H     1.705000000     0.372000000     5.215000000
C     2.400000000     1.412000000     3.440000000
C     3.482000000     1.644000000     2.590000000
H     3.406000000     2.457000000     1.872000000
C     1.107000000     2.210000000     3.427000000
O     0.340000000     2.108000000     4.620000000
H     0.485000000     1.878000000     2.582000000
O     1.356000000     3.586000000     3.168000000
C     0.574000000     4.078000000     2.177000000
C     1.190000000     4.328000000     0.904000000
H     2.230000000     4.129000000     0.656000000
C     0.386000000     4.639000000    -0.227000000
O     1.082000000     4.677000000    -1.418000000
C    -0.940000000     4.827000000    -0.149000000
C    -1.839000000     5.222000000    -1.345000000
H    -2.804000000     5.629000000    -1.036000000
C    -2.192000000     3.972000000    -2.095000000
C    -3.356000000     3.358000000    -1.841000000
H    -3.998000000     3.788000000    -1.077000000
H    -1.309000000     5.893000000    -2.024000000
C    -1.549000000     4.481000000     1.049000000
H    -2.628000000     4.585000000     1.124000000
C    -0.853000000     4.140000000     2.260000000
C    -1.614000000     4.027000000     3.550000000
H    -2.517000000     4.631000000     3.660000000
H    -1.001000000     4.460000000     4.343000000
C    -1.932000000     2.592000000     3.809000000
C    -3.197000000     2.063000000     3.516000000
H    -3.855000000     2.631000000     2.863000000
C    -0.988000000     1.735000000     4.381000000
C    -1.266000000     0.382000000     4.494000000
H    -0.494000000    -0.327000000     4.779000000
C    -2.440000000    -0.161000000     4.074000000
O    -2.482000000    -1.537000000     3.946000000
C    -2.318000000    -2.112000000     2.644000000
C    -1.611000000    -3.429000000     2.781000000
C    -1.940000000    -4.465000000     1.822000000
H    -2.590000000    -4.273000000     0.972000000
C    -0.708000000    -3.703000000     3.779000000
H    -0.425000000    -2.969000000     4.530000000
O    -3.659000000    -2.231000000     2.060000000
H    -1.717000000    -1.406000000     2.053000000
C    -3.410000000     0.723000000     3.451000000
C    -4.756000000     0.270000000     2.999000000
H    -5.497000000     1.069000000     3.069000000
H    -5.236000000    -0.516000000     3.585000000
C    -4.551000000    -0.156000000     1.500000000
C    -4.871000000     0.751000000     0.520000000
H    -4.980000000     1.770000000     0.883000000
C    -4.076000000    -1.400000000     1.144000000
C    -3.893000000    -1.743000000    -0.167000000
H    -3.514000000    -2.735000000    -0.397000000
C    -4.175000000    -0.844000000    -1.197000000
O    -4.022000000    -1.141000000    -2.466000000
C    -2.833000000    -0.732000000    -3.181000000
C    -2.150000000    -1.829000000    -3.940000000
C    -2.347000000    -3.200000000    -3.630000000
H    -3.124000000    -3.458000000    -2.915000000
C    -1.040000000    -1.533000000    -4.750000000
H    -0.813000000    -0.478000000    -4.885000000
O    -3.209000000     0.415000000    -4.044000000
H    -2.100000000    -0.379000000    -2.441000000
C    -4.688000000     0.390000000    -0.846000000
C    -4.984000000     1.441000000    -1.926000000
H    -5.738000000     2.054000000    -1.428000000
H    -5.502000000     0.983000000    -2.771000000
C    -3.740000000     2.150000000    -2.415000000
C    -2.961000000     1.681000000    -3.513000000
C    -1.757000000     2.290000000    -3.786000000
H    -1.135000000     1.735000000    -4.483000000
C    -1.360000000     3.462000000    -3.071000000
O    -0.164000000     4.037000000    -3.312000000
C     0.914000000     3.622000000    -2.424000000
H     0.705000000     2.664000000    -1.924000000
C     2.263000000     3.370000000    -3.081000000
C     3.466000000     3.837000000    -2.424000000
H     3.412000000     4.384000000    -1.487000000
C     2.464000000     2.629000000    -4.245000000
H     1.590000000     2.250000000    -4.769000000
C     3.679000000     2.441000000    -4.811000000
O     3.879000000     1.682000000    -5.914000000
C     4.813000000     2.821000000    -4.090000000
H     5.774000000     2.524000000    -4.503000000
C     4.754000000     3.506000000    -2.875000000
O     5.913000000     3.814000000    -2.137000000
C     6.124000000     3.472000000    -0.829000000
C     5.579000000     2.321000000    -0.300000000
H     4.896000000     1.755000000    -0.928000000
C     7.086000000     4.236000000    -0.138000000
H     7.547000000     5.138000000    -0.530000000
C     7.417000000     3.796000000     1.131000000
H     8.210000000     4.289000000     1.687000000
C     6.738000000     2.732000000     1.754000000
H     6.950000000     2.436000000     2.778000000
C     5.880000000     1.940000000     0.947000000
O     5.430000000     0.791000000     1.493000000
C     4.526000000     0.700000000     2.487000000
C     4.462000000    -0.462000000     3.353000000
H     5.261000000    -1.192000000     3.251000000
C     3.515000000    -0.541000000     4.400000000
O     3.792000000    -1.443000000     5.376000000
C     2.965000000    -2.421000000     5.910000000
C     2.165000000    -3.260000000     5.093000000
H     2.089000000    -3.093000000     4.021000000
C     2.906000000    -2.599000000     7.248000000
H     3.624000000    -2.011000000     7.814000000
C     2.247000000    -3.674000000     7.795000000
H     2.240000000    -3.784000000     8.876000000
C     1.492000000    -4.517000000     6.947000000
H     0.906000000    -5.334000000     7.361000000
C     1.444000000    -4.341000000     5.624000000
O     0.696000000    -5.271000000     4.947000000
C    -0.148000000    -5.002000000     3.938000000
C    -0.478000000    -5.945000000     2.972000000
H    -0.109000000    -6.968000000     2.985000000
C    -1.298000000    -5.681000000     1.983000000
O    -1.498000000    -6.724000000     1.028000000
C    -2.276000000    -6.553000000    -0.126000000
C    -1.665000000    -5.990000000    -1.272000000
H    -0.627000000    -5.671000000    -1.232000000
C    -3.632000000    -6.815000000    -0.191000000
H    -4.198000000    -7.133000000     0.680000000
C    -4.371000000    -6.533000000    -1.349000000
H    -5.453000000    -6.638000000    -1.337000000
C    -3.764000000    -6.120000000    -2.550000000
H    -4.261000000    -5.888000000    -3.488000000
C    -2.387000000    -5.888000000    -2.517000000
O    -1.677000000    -5.587000000    -3.646000000
C    -1.474000000    -4.266000000    -4.057000000
C    -0.364000000    -3.853000000    -4.846000000
H     0.354000000    -4.655000000    -4.997000000
C    -0.116000000    -2.483000000    -5.135000000
O     1.033000000    -2.215000000    -5.841000000
C     1.477000000    -1.031000000    -6.358000000
C     0.753000000    -0.510000000    -7.479000000
H    -0.106000000    -1.082000000    -7.821000000
C     1.249000000     0.572000000    -8.214000000
H     0.709000000     0.827000000    -9.122000000
C     2.327000000     1.314000000    -7.691000000
H     2.564000000     2.316000000    -8.037000000
C     2.915000000     0.887000000    -6.498000000
C     2.444000000    -0.267000000    -5.839000000
H     2.842000000    -0.448000000    -4.844000000
C     1.252000000    -0.552000000     0.643000000
H     1.592000000    -0.781000000     1.650000000
C    -0.024000000     0.139000000     0.461000000
H    -0.633000000     0.351000000     1.336000000
C    -0.420000000     0.510000000    -0.789000000
H    -1.402000000     1.048000000    -0.985000000
C     0.501000000     0.309000000    -1.833000000
H     0.261000000     0.544000000    -2.867000000
C     1.760000000    -0.277000000    -1.654000000
H     2.464000000    -0.361000000    -2.478000000
C     2.106000000    -0.813000000    -0.425000000
C     3.284000000    -1.725000000    -0.275000000
O     4.140000000    -1.771000000    -1.166000000
O     3.366000000    -2.426000000     0.688000000
O     5.105000000    -4.269000000     2.229000000
H     5.270000000    -5.059000000     1.715000000
H     4.638000000    -3.686000000     1.631000000
O     2.396000000    -6.097000000    -0.511000000
H     2.945000000    -6.619000000    -1.096000000
H     2.162000000    -5.325000000    -1.026000000
O     8.696000000    -2.010000000     1.280000000
H     8.286000000    -1.778000000     0.447000000
H     8.226000000    -2.792000000     1.569000000
O     7.907000000    -3.935000000    -1.975000000
H     7.165000000    -4.163000000    -1.414000000
H     7.637000000    -3.126000000    -2.411000000
O     6.987000000    -1.295000000    -0.736000000
H     6.943000000    -0.572000000    -1.362000000
H     6.118000000    -1.695000000    -0.772000000
O     3.500000000    -6.313000000     3.333000000
H     4.329000000    -6.083000000     3.752000000
H     2.919000000    -5.579000000     3.533000000
O     6.131000000    -7.003000000    -0.614000000
H     7.086000000    -6.935000000    -0.635000000
H     5.825000000    -6.102000000    -0.713000000
O     7.492000000     1.091000000    -2.543000000
H     7.303000000     1.919000000    -2.984000000
H     6.864000000     0.472000000    -2.915000000
O     7.976000000    -1.793000000    -4.103000000
H     7.775000000    -2.145000000    -4.970000000
H     7.121000000    -1.586000000    -3.725000000
O     7.061000000    -3.048000000     3.396000000
H     6.230000000    -3.262000000     2.972000000
H     6.846000000    -2.979000000     4.326000000
O     1.788000000    -4.072000000    -2.143000000
H     2.478000000    -3.452000000    -2.379000000
H     0.976000000    -3.572000000    -2.233000000
O     5.500000000    -1.024000000    -3.285000000
H     4.886000000    -1.292000000    -2.601000000
H     5.078000000    -1.287000000    -4.103000000
O     9.201000000     1.286000000     0.458000000
H     9.474000000     1.487000000    -0.437000000
H     8.249000000     1.208000000     0.407000000
O    -0.740000000    -2.610000000    -0.815000000
H    -0.504000000    -1.691000000    -0.688000000
H    -0.343000000    -3.065000000    -0.072000000
O     5.376000000    -4.221000000    -0.962000000
H     4.513000000    -3.850000000    -0.778000000
H     5.364000000    -4.403000000    -1.901000000
O     3.767000000    -2.891000000    -5.083000000
H     3.594000000    -2.847000000    -6.023000000
H     3.506000000    -3.777000000    -4.832000000
O     2.991000000    -5.679000000    -4.045000000
H     2.756000000    -5.188000000    -3.258000000
H     2.650000000    -6.560000000    -3.888000000
O     5.681000000    -4.268000000    -3.626000000
H     6.111000000    -4.822000000    -4.277000000
H     5.119000000    -3.688000000    -4.139000000
O     1.059000000    -3.909000000     0.784000000
H     1.353000000    -4.815000000     0.878000000
H     1.859000000    -3.389000000     0.851000000
