215
-1476.23858
C     2.636000000     0.037000000     4.774000000
H     1.762000000    -0.472000000     5.172000000
C     2.565000000     1.270000000     4.152000000
C     3.730000000     1.835000000     3.586000000
H     3.688000000     2.826000000     3.140000000
C     1.200000000     1.952000000     3.903000000
O     0.132000000     1.583000000     4.878000000
H     0.957000000     1.560000000     2.904000000
O     1.214000000     3.368000000     3.757000000
C     0.440000000     3.889000000     2.698000000
C     1.019000000     4.223000000     1.448000000
H     2.103000000     4.297000000     1.422000000
C     0.252000000     4.601000000     0.386000000
O     0.938000000     4.837000000    -0.797000000
C    -1.149000000     4.760000000     0.504000000
C    -2.010000000     5.314000000    -0.683000000
H    -2.874000000     5.816000000    -0.242000000
C    -2.303000000     4.175000000    -1.631000000
C    -3.487000000     3.410000000    -1.408000000
H    -4.086000000     3.729000000    -0.558000000
H    -1.425000000     6.001000000    -1.298000000
C    -1.713000000     4.365000000     1.738000000
H    -2.779000000     4.509000000     1.889000000
C    -0.956000000     4.048000000     2.849000000
C    -1.745000000     3.632000000     4.074000000
H    -2.639000000     4.247000000     4.194000000
H    -1.185000000     3.897000000     4.974000000
C    -2.054000000     2.228000000     4.010000000
C    -3.256000000     1.671000000     3.496000000
H    -4.009000000     2.322000000     3.060000000
C    -1.102000000     1.274000000     4.431000000
C    -1.264000000    -0.143000000     4.312000000
H    -0.516000000    -0.890000000     4.564000000
C    -2.409000000    -0.618000000     3.724000000
O    -2.631000000    -1.962000000     3.656000000
C    -2.473000000    -2.566000000     2.306000000
C    -1.593000000    -3.800000000     2.322000000
C    -1.567000000    -4.617000000     1.162000000
H    -2.229000000    -4.440000000     0.319000000
C    -0.726000000    -4.089000000     3.331000000
H    -0.785000000    -3.417000000     4.184000000
O    -3.713000000    -2.763000000     1.708000000
H    -1.841000000    -1.842000000     1.771000000
C    -3.440000000     0.296000000     3.386000000
C    -4.707000000    -0.230000000     2.822000000
H    -5.583000000     0.383000000     3.045000000
H    -4.966000000    -1.098000000     3.432000000
C    -4.590000000    -0.544000000     1.404000000
C    -4.802000000     0.524000000     0.446000000
H    -5.184000000     1.441000000     0.887000000
C    -4.205000000    -1.785000000     0.860000000
C    -4.035000000    -2.001000000    -0.500000000
H    -3.721000000    -2.997000000    -0.802000000
C    -4.196000000    -0.961000000    -1.368000000
O    -3.802000000    -1.116000000    -2.685000000
C    -2.646000000    -0.483000000    -3.204000000
C    -1.851000000    -1.422000000    -4.081000000
C    -1.985000000    -2.809000000    -3.846000000
H    -2.665000000    -3.305000000    -3.158000000
C    -0.930000000    -0.966000000    -5.074000000
H    -0.793000000     0.110000000    -5.139000000
O    -2.898000000     0.771000000    -3.943000000
H    -1.980000000    -0.330000000    -2.341000000
C    -4.589000000     0.342000000    -0.891000000
C    -4.943000000     1.454000000    -1.915000000
H    -5.808000000     1.976000000    -1.500000000
H    -5.294000000     0.945000000    -2.815000000
C    -3.761000000     2.352000000    -2.235000000
C    -2.815000000     2.016000000    -3.279000000
C    -1.663000000     2.727000000    -3.492000000
H    -0.962000000     2.339000000    -4.227000000
C    -1.436000000     3.794000000    -2.677000000
O    -0.164000000     4.266000000    -2.738000000
C     0.810000000     3.814000000    -1.804000000
H     0.342000000     2.977000000    -1.265000000
C     2.111000000     3.269000000    -2.449000000
C     3.276000000     2.840000000    -1.698000000
H     3.189000000     2.804000000    -0.615000000
C     2.240000000     3.141000000    -3.807000000
H     1.449000000     3.429000000    -4.496000000
C     3.338000000     2.622000000    -4.422000000
O     3.374000000     2.452000000    -5.786000000
C     4.420000000     2.110000000    -3.708000000
H     5.159000000     1.496000000    -4.216000000
C     4.388000000     2.246000000    -2.326000000
O     5.489000000     1.742000000    -1.582000000
C     5.904000000     2.418000000    -0.431000000
C     5.767000000     1.663000000     0.724000000
H     5.230000000     0.718000000     0.728000000
C     6.481000000     3.718000000    -0.450000000
H     6.395000000     4.315000000    -1.355000000
C     6.725000000     4.298000000     0.768000000
H     7.153000000     5.288000000     0.908000000
C     6.655000000     3.533000000     1.961000000
H     7.054000000     3.977000000     2.869000000
C     6.243000000     2.221000000     1.891000000
O     6.171000000     1.521000000     3.062000000
C     4.955000000     1.168000000     3.668000000
C     4.929000000    -0.120000000     4.234000000
H     5.853000000    -0.683000000     4.342000000
C     3.793000000    -0.655000000     4.728000000
O     3.884000000    -1.896000000     5.249000000
C     2.840000000    -2.657000000     5.650000000
C     2.321000000    -3.605000000     4.786000000
H     2.825000000    -3.803000000     3.844000000
C     2.346000000    -2.514000000     6.921000000
H     2.835000000    -1.765000000     7.539000000
C     1.244000000    -3.279000000     7.307000000
H     0.800000000    -3.233000000     8.298000000
C     0.795000000    -4.289000000     6.462000000
H     0.048000000    -4.984000000     6.838000000
C     1.333000000    -4.391000000     5.178000000
O     1.048000000    -5.435000000     4.303000000
C     0.152000000    -5.178000000     3.289000000
C     0.037000000    -6.064000000     2.210000000
H     0.652000000    -6.956000000     2.123000000
C    -0.757000000    -5.737000000     1.144000000
O    -0.685000000    -6.597000000     0.074000000
C    -1.478000000    -6.420000000    -0.992000000
C    -0.897000000    -5.948000000    -2.159000000
H     0.168000000    -5.734000000    -2.196000000
C    -2.792000000    -6.749000000    -0.885000000
H    -3.281000000    -7.168000000    -0.010000000
C    -3.612000000    -6.675000000    -2.046000000
H    -4.658000000    -6.964000000    -1.973000000
C    -3.057000000    -6.120000000    -3.237000000
H    -3.609000000    -5.953000000    -4.158000000
C    -1.753000000    -5.737000000    -3.302000000
O    -1.267000000    -5.068000000    -4.468000000
C    -1.177000000    -3.714000000    -4.552000000
C    -0.414000000    -3.305000000    -5.583000000
H     0.198000000    -4.035000000    -6.107000000
C    -0.168000000    -1.926000000    -5.834000000
O     0.784000000    -1.586000000    -6.759000000
C     1.103000000    -0.226000000    -6.904000000
C     0.694000000     0.338000000    -8.094000000
H    -0.034000000    -0.210000000    -8.686000000
C     0.994000000     1.648000000    -8.438000000
H     0.600000000     2.098000000    -9.346000000
C     1.906000000     2.301000000    -7.617000000
H     2.279000000     3.269000000    -7.942000000
C     2.440000000     1.711000000    -6.521000000
C     2.068000000     0.459000000    -6.128000000
H     2.597000000    -0.038000000    -5.319000000
C     2.048000000    -0.918000000     0.796000000
H     2.683000000    -1.445000000     1.504000000
C     0.760000000    -0.415000000     1.086000000
H     0.400000000    -0.490000000     2.109000000
C    -0.061000000     0.124000000     0.058000000
H    -0.984000000     0.650000000     0.320000000
C     0.506000000     0.342000000    -1.157000000
H    -0.077000000     0.894000000    -1.890000000
C     1.804000000    -0.109000000    -1.425000000
H     2.214000000     0.000000000    -2.425000000
C     2.551000000    -0.806000000    -0.498000000
C     3.883000000    -1.455000000    -0.946000000
O     4.223000000    -1.270000000    -2.097000000
O     4.452000000    -2.283000000    -0.232000000
O     4.768000000    -4.583000000     1.232000000
H     5.497000000    -4.946000000     0.730000000
H     4.576000000    -3.747000000     0.807000000
O     2.407000000    -6.166000000    -0.829000000
H     2.389000000    -6.360000000     0.109000000
H     2.074000000    -6.962000000    -1.244000000
O     5.221000000    -4.884000000    -4.566000000
H     5.715000000    -4.064000000    -4.563000000
H     4.843000000    -4.939000000    -3.688000000
O     9.533000000    -1.013000000     1.889000000
H     8.849000000    -0.511000000     1.445000000
H     9.838000000    -0.434000000     2.587000000
O     4.824000000    -1.526000000    -4.906000000
H     4.872000000    -0.957000000    -4.138000000
H     4.092000000    -2.114000000    -4.724000000
O     6.945000000    -1.882000000    -1.936000000
H     7.269000000    -2.520000000    -1.301000000
H     5.999000000    -1.862000000    -1.794000000
O     5.587000000    -1.507000000    -7.577000000
H     5.233000000    -1.267000000    -6.721000000
H     4.994000000    -1.096000000    -8.206000000
O     8.711000000    -3.125000000     0.013000000
H     8.833000000    -4.074000000     0.035000000
H     9.506000000    -2.773000000     0.414000000
O     9.988000000     1.502000000    -0.567000000
H     9.171000000     1.097000000    -0.860000000
H    10.676000000     0.952000000    -0.941000000
O     6.631000000    -5.511000000    -0.426000000
H     7.527000000    -5.294000000    -0.682000000
H     6.091000000    -5.189000000    -1.148000000
O     2.237000000    -2.397000000    -3.787000000
H     1.629000000    -2.701000000    -3.113000000
H     2.802000000    -1.771000000    -3.334000000
O     7.820000000     0.512000000    -2.214000000
H     7.629000000    -0.423000000    -2.136000000
H     6.960000000     0.929000000    -2.259000000
O     6.037000000    -3.501000000     3.895000000
H     5.383000000    -4.094000000     3.524000000
H     6.182000000    -2.847000000     3.211000000
O     0.522000000    -3.001000000    -1.596000000
H     0.626000000    -2.507000000    -0.783000000
H    -0.383000000    -2.839000000    -1.861000000
O     4.665000000    -4.389000000    -2.034000000
H     4.369000000    -3.522000000    -1.757000000
H     3.918000000    -4.963000000    -1.863000000
O     7.335000000    -3.156000000    -5.115000000
H     6.978000000    -2.269000000    -5.156000000
H     7.653000000    -3.245000000    -4.217000000
O     2.515000000    -4.331000000    -5.615000000
H     2.331000000    -3.659000000    -4.959000000
H     3.405000000    -4.621000000    -5.417000000
O     6.821000000    -2.285000000     1.642000000
H     6.110000000    -2.546000000     1.057000000
H     7.612000000    -2.364000000     1.108000000
O     3.207000000    -6.645000000     1.935000000
H     3.598000000    -5.775000000     1.851000000
H     3.931000000    -7.250000000     1.777000000
