215
-1445.38143
C     2.649000000     0.938000000     4.936000000
H     1.863000000     0.939000000     5.688000000
C     2.646000000     1.817000000     3.772000000
C     3.768000000     1.846000000     2.958000000
H     3.739000000     2.357000000     1.999000000
C     1.272000000     2.383000000     3.285000000
O     0.349000000     2.303000000     4.410000000
H     0.837000000     1.835000000     2.436000000
O     1.484000000     3.642000000     2.743000000
C     0.659000000     4.047000000     1.697000000
C     1.183000000     4.214000000     0.490000000
H     2.254000000     4.041000000     0.423000000
C     0.524000000     4.656000000    -0.624000000
O     1.144000000     4.652000000    -1.823000000
C    -0.818000000     4.805000000    -0.579000000
C    -1.670000000     5.018000000    -1.836000000
H    -2.560000000     5.611000000    -1.618000000
C    -2.123000000     3.749000000    -2.359000000
C    -3.344000000     3.246000000    -1.971000000
H    -3.962000000     3.801000000    -1.269000000
H    -1.190000000     5.548000000    -2.662000000
C    -1.453000000     4.680000000     0.706000000
H    -2.513000000     4.910000000     0.782000000
C    -0.702000000     4.351000000     1.851000000
C    -1.411000000     4.238000000     3.184000000
H    -2.290000000     4.880000000     3.272000000
H    -0.738000000     4.642000000     3.943000000
C    -1.850000000     2.890000000     3.489000000
C    -3.106000000     2.504000000     3.086000000
H    -3.692000000     3.238000000     2.540000000
C    -0.965000000     1.969000000     4.109000000
C    -1.365000000     0.643000000     4.179000000
H    -0.690000000    -0.110000000     4.578000000
C    -2.597000000     0.276000000     3.692000000
O    -2.789000000    -1.093000000     3.721000000
C    -2.597000000    -1.910000000     2.558000000
C    -1.746000000    -3.102000000     2.871000000
C    -1.723000000    -4.155000000     1.900000000
H    -2.317000000    -4.024000000     0.999000000
C    -0.768000000    -3.007000000     3.868000000
H    -0.833000000    -2.250000000     4.645000000
O    -3.911000000    -2.271000000     2.015000000
H    -2.078000000    -1.357000000     1.762000000
C    -3.544000000     1.172000000     3.228000000
C    -4.803000000     0.601000000     2.695000000
H    -5.538000000     1.402000000     2.800000000
H    -5.180000000    -0.252000000     3.263000000
C    -4.611000000     0.015000000     1.309000000
C    -4.987000000     0.828000000     0.252000000
H    -5.307000000     1.852000000     0.425000000
C    -4.257000000    -1.340000000     1.064000000
C    -4.315000000    -1.792000000    -0.257000000
H    -4.091000000    -2.833000000    -0.473000000
C    -4.545000000    -0.938000000    -1.287000000
O    -4.225000000    -1.450000000    -2.573000000
C    -2.954000000    -1.011000000    -3.189000000
C    -2.193000000    -2.137000000    -3.861000000
C    -2.305000000    -3.496000000    -3.359000000
H    -2.881000000    -3.721000000    -2.465000000
C    -1.434000000    -1.934000000    -5.027000000
H    -1.458000000    -0.933000000    -5.450000000
O    -3.256000000     0.114000000    -3.915000000
H    -2.243000000    -0.733000000    -2.397000000
C    -4.863000000     0.399000000    -1.070000000
C    -5.103000000     1.324000000    -2.186000000
H    -5.825000000     2.107000000    -1.944000000
H    -5.464000000     0.846000000    -3.099000000
C    -3.796000000     2.000000000    -2.508000000
C    -2.895000000     1.316000000    -3.341000000
C    -1.715000000     1.785000000    -3.671000000
H    -1.135000000     1.306000000    -4.456000000
C    -1.262000000     2.997000000    -3.217000000
O    -0.061000000     3.468000000    -3.485000000
C     1.035000000     3.399000000    -2.488000000
H     0.739000000     2.619000000    -1.772000000
C     2.427000000     3.015000000    -3.040000000
C     3.623000000     2.967000000    -2.268000000
H     3.694000000     3.625000000    -1.405000000
C     2.402000000     2.142000000    -4.202000000
H     1.463000000     2.012000000    -4.733000000
C     3.539000000     1.463000000    -4.610000000
O     3.526000000     0.474000000    -5.565000000
C     4.701000000     1.536000000    -3.869000000
H     5.588000000     0.979000000    -4.159000000
C     4.759000000     2.318000000    -2.772000000
O     5.973000000     2.515000000    -2.163000000
C     6.292000000     2.584000000    -0.787000000
C     5.965000000     1.666000000     0.165000000
H     5.336000000     0.793000000     0.010000000
C     6.981000000     3.752000000    -0.455000000
H     7.288000000     4.565000000    -1.107000000
C     7.372000000     3.985000000     0.849000000
H     7.751000000     4.980000000     1.065000000
C     7.170000000     3.054000000     1.847000000
H     7.438000000     3.323000000     2.866000000
C     6.393000000     1.926000000     1.484000000
O     6.062000000     1.069000000     2.519000000
C     4.873000000     1.110000000     3.269000000
C     4.891000000     0.181000000     4.376000000
H     5.771000000    -0.440000000     4.522000000
C     3.838000000     0.200000000     5.267000000
O     3.867000000    -0.682000000     6.295000000
C     2.832000000    -1.501000000     6.488000000
C     2.512000000    -2.482000000     5.564000000
H     3.130000000    -2.506000000     4.671000000
C     2.110000000    -1.283000000     7.616000000
H     2.449000000    -0.560000000     8.354000000
C     1.083000000    -2.144000000     7.898000000
H     0.596000000    -2.148000000     8.870000000
C     0.636000000    -3.142000000     7.001000000
H    -0.115000000    -3.886000000     7.255000000
C     1.338000000    -3.256000000     5.831000000
O     1.024000000    -4.315000000     5.037000000
C     0.057000000    -4.130000000     4.026000000
C     0.034000000    -5.163000000     3.071000000
H     0.820000000    -5.895000000     3.238000000
C    -0.777000000    -5.189000000     1.980000000
O    -0.692000000    -6.192000000     1.063000000
C    -1.554000000    -6.466000000     0.021000000
C    -1.364000000    -5.846000000    -1.229000000
H    -0.687000000    -5.010000000    -1.379000000
C    -2.483000000    -7.452000000     0.256000000
H    -2.488000000    -7.914000000     1.240000000
C    -3.225000000    -7.867000000    -0.866000000
H    -4.059000000    -8.537000000    -0.674000000
C    -3.067000000    -7.340000000    -2.167000000
H    -3.568000000    -7.761000000    -3.035000000
C    -2.128000000    -6.302000000    -2.328000000
O    -1.756000000    -5.839000000    -3.588000000
C    -1.575000000    -4.539000000    -3.986000000
C    -0.803000000    -4.284000000    -5.110000000
H    -0.400000000    -5.108000000    -5.693000000
C    -0.745000000    -2.973000000    -5.630000000
O     0.039000000    -2.647000000    -6.783000000
C     0.654000000    -1.371000000    -6.849000000
C     0.129000000    -0.487000000    -7.802000000
H    -0.726000000    -0.800000000    -8.396000000
C     0.676000000     0.827000000    -7.861000000
H     0.338000000     1.579000000    -8.570000000
C     1.855000000     1.081000000    -7.145000000
H     2.262000000     2.088000000    -7.192000000
C     2.479000000     0.123000000    -6.348000000
C     1.831000000    -1.090000000    -6.167000000
H     2.270000000    -1.784000000    -5.454000000
C     1.380000000    -0.808000000     1.013000000
H     1.309000000    -1.384000000     1.932000000
C     0.262000000    -0.024000000     0.712000000
H    -0.486000000     0.085000000     1.493000000
C     0.085000000     0.452000000    -0.589000000
H    -0.855000000     1.092000000    -0.787000000
C     1.049000000     0.234000000    -1.530000000
H     0.967000000     0.488000000    -2.584000000
C     2.279000000    -0.282000000    -1.107000000
H     3.083000000    -0.236000000    -1.836000000
C     2.482000000    -0.815000000     0.193000000
C     3.758000000    -1.453000000     0.615000000
O     4.710000000    -1.645000000    -0.197000000
O     3.824000000    -1.856000000     1.782000000
O     5.112000000    -3.955000000     2.602000000
H     4.530000000    -4.652000000     2.299000000
H     4.695000000    -3.148000000     2.298000000
O     6.440000000    -1.849000000    -4.798000000
H     7.347000000    -2.152000000    -4.843000000
H     6.457000000    -0.980000000    -5.198000000
O     3.260000000    -6.130000000     2.211000000
H     2.757000000    -6.936000000     2.099000000
H     3.399000000    -6.063000000     3.156000000
O     8.359000000    -4.156000000     3.447000000
H     7.411000000    -4.069000000     3.348000000
H     8.724000000    -3.535000000     2.816000000
O     7.279000000    -1.489000000     1.305000000
H     6.389000000    -1.285000000     1.017000000
H     7.341000000    -1.105000000     2.180000000
O     4.735000000    -3.672000000    -3.828000000
H     5.302000000    -4.438000000    -3.739000000
H     5.270000000    -3.030000000    -4.293000000
O     5.011000000    -6.749000000    -0.606000000
H     4.678000000    -5.922000000    -0.259000000
H     4.989000000    -6.637000000    -1.556000000
O     6.709000000    -0.930000000    -2.113000000
H     6.171000000    -1.237000000    -1.383000000
H     6.327000000    -1.349000000    -2.884000000
O     5.174000000    -8.606000000     1.461000000
H     5.757000000    -8.277000000     2.145000000
H     5.208000000    -7.939000000     0.776000000
O     7.823000000    -4.234000000     0.358000000
H     7.848000000    -3.280000000     0.438000000
H     6.919000000    -4.430000000     0.113000000
O     6.004000000    -4.167000000     5.285000000
H     5.324000000    -4.712000000     5.683000000
H     5.619000000    -3.868000000     4.461000000
O    10.729000000    -2.953000000    -1.679000000
H     9.918000000    -3.102000000    -1.192000000
H    10.441000000    -2.610000000    -2.525000000
O     8.338000000    -0.435000000     3.678000000
H     7.804000000    -0.027000000     4.360000000
H     9.164000000    -0.644000000     4.114000000
O     5.296000000    -3.986000000    -1.033000000
H     4.998000000    -3.192000000    -0.589000000
H     5.157000000    -3.808000000    -1.963000000
O     9.784000000    -0.365000000     0.682000000
H    10.664000000    -0.710000000     0.830000000
H     9.221000000    -0.890000000     1.251000000
O     1.248000000    -3.258000000    -2.013000000
H     1.005000000    -2.336000000    -2.091000000
H     1.257000000    -3.425000000    -1.071000000
O     2.285000000    -4.901000000    -3.674000000
H     1.972000000    -4.279000000    -3.017000000
H     3.191000000    -4.640000000    -3.837000000
O     9.061000000     0.307000000    -2.133000000
H     8.256000000    -0.193000000    -1.998000000
H     9.326000000     0.577000000    -1.254000000
O     2.079000000    -3.925000000     0.826000000
H     2.569000000    -4.695000000     1.114000000
H     2.520000000    -3.188000000     1.250000000
