215
-1438.41987
C    -1.364000000    -1.246000000    -4.990000000
H    -0.840000000    -2.199000000    -4.976000000
C    -0.713000000    -0.042000000    -4.588000000
C    -1.472000000     1.104000000    -4.434000000
H    -0.946000000     1.980000000    -4.065000000
C     0.769000000    -0.089000000    -4.147000000
O     1.468000000    -1.166000000    -4.767000000
H     0.716000000    -0.272000000    -3.064000000
O     1.503000000     1.107000000    -4.450000000
C     2.427000000     1.691000000    -3.637000000
C     1.921000000     2.759000000    -2.917000000
H     0.965000000     3.198000000    -3.190000000
C     2.575000000     3.295000000    -1.821000000
O     1.959000000     4.382000000    -1.127000000
C     3.783000000     2.726000000    -1.483000000
C     4.582000000     3.302000000    -0.295000000
H     5.638000000     3.118000000    -0.506000000
C     4.109000000     2.701000000     1.014000000
C     4.644000000     1.490000000     1.427000000
H     5.553000000     1.061000000     1.013000000
H     4.431000000     4.376000000    -0.170000000
C     4.343000000     1.616000000    -2.175000000
H     5.212000000     1.063000000    -1.827000000
C     3.543000000     1.019000000    -3.152000000
C     4.104000000    -0.240000000    -3.858000000
H     5.190000000    -0.298000000    -3.765000000
H     3.840000000    -0.270000000    -4.917000000
C     3.440000000    -1.500000000    -3.330000000
C     4.007000000    -2.198000000    -2.244000000
H     4.907000000    -1.843000000    -1.747000000
C     2.247000000    -1.909000000    -3.901000000
C     1.546000000    -3.009000000    -3.373000000
H     0.619000000    -3.448000000    -3.733000000
C     2.086000000    -3.695000000    -2.282000000
O     1.237000000    -4.586000000    -1.585000000
C     0.619000000    -4.049000000    -0.302000000
C    -0.835000000    -4.325000000    -0.126000000
C    -1.466000000    -4.167000000     1.079000000
H    -0.889000000    -3.765000000     1.908000000
C    -1.579000000    -4.527000000    -1.258000000
H    -1.158000000    -4.518000000    -2.260000000
O     1.328000000    -4.429000000     0.813000000
H     0.704000000    -2.953000000    -0.314000000
C     3.307000000    -3.320000000    -1.733000000
C     3.988000000    -3.940000000    -0.515000000
H     5.060000000    -4.010000000    -0.709000000
H     3.707000000    -4.994000000    -0.484000000
C     3.566000000    -3.369000000     0.856000000
C     4.332000000    -2.325000000     1.391000000
H     5.150000000    -1.877000000     0.834000000
C     2.318000000    -3.644000000     1.427000000
C     2.047000000    -3.127000000     2.656000000
H     1.123000000    -3.289000000     3.205000000
C     2.840000000    -2.073000000     3.170000000
O     2.279000000    -1.439000000     4.241000000
C     1.633000000    -0.207000000     4.052000000
C     0.191000000    -0.131000000     4.665000000
C    -0.356000000    -1.221000000     5.309000000
H     0.196000000    -2.158000000     5.294000000
C    -0.560000000     1.049000000     4.603000000
H    -0.289000000     1.872000000     3.947000000
O     2.561000000     0.851000000     4.478000000
H     1.427000000    -0.126000000     2.975000000
C     3.938000000    -1.586000000     2.525000000
C     4.702000000    -0.371000000     3.074000000
H     5.760000000    -0.399000000     2.807000000
H     4.744000000    -0.417000000     4.164000000
C     4.139000000     0.963000000     2.664000000
C     3.113000000     1.500000000     3.381000000
C     2.564000000     2.729000000     2.955000000
H     1.714000000     3.266000000     3.369000000
C     3.045000000     3.247000000     1.730000000
O     2.311000000     4.330000000     1.198000000
C     1.409000000     4.033000000     0.117000000
H     1.052000000     2.996000000     0.208000000
C     0.041000000     4.730000000     0.262000000
C    -0.728000000     4.981000000    -0.862000000
H    -0.335000000     4.648000000    -1.819000000
C    -0.398000000     5.209000000     1.498000000
H     0.163000000     5.054000000     2.415000000
C    -1.561000000     6.012000000     1.622000000
O    -1.988000000     6.441000000     2.858000000
C    -2.232000000     6.258000000     0.421000000
H    -3.132000000     6.867000000     0.429000000
C    -1.834000000     5.775000000    -0.775000000
O    -2.737000000     6.076000000    -1.708000000
C    -2.680000000     5.413000000    -2.895000000
C    -3.216000000     4.116000000    -3.074000000
H    -3.844000000     3.559000000    -2.383000000
C    -2.195000000     6.161000000    -3.958000000
H    -1.888000000     7.174000000    -3.711000000
C    -2.196000000     5.597000000    -5.240000000
H    -1.814000000     6.193000000    -6.065000000
C    -2.654000000     4.313000000    -5.441000000
H    -2.665000000     3.786000000    -6.391000000
C    -3.187000000     3.585000000    -4.349000000
O    -3.602000000     2.270000000    -4.520000000
C    -2.802000000     1.150000000    -4.790000000
C    -3.477000000    -0.025000000    -5.239000000
H    -4.533000000     0.068000000    -5.480000000
C    -2.724000000    -1.174000000    -5.393000000
O    -3.343000000    -2.270000000    -5.877000000
C    -3.058000000    -3.502000000    -5.429000000
C    -3.291000000    -3.709000000    -4.030000000
H    -3.587000000    -2.912000000    -3.352000000
C    -2.883000000    -4.509000000    -6.361000000
H    -2.685000000    -4.223000000    -7.391000000
C    -2.808000000    -5.807000000    -5.900000000
H    -2.645000000    -6.654000000    -6.561000000
C    -3.112000000    -6.059000000    -4.513000000
H    -3.055000000    -7.084000000    -4.156000000
C    -3.360000000    -5.033000000    -3.589000000
O    -3.656000000    -5.385000000    -2.301000000
C    -2.908000000    -4.962000000    -1.187000000
C    -3.498000000    -4.992000000     0.061000000
H    -4.528000000    -5.336000000     0.035000000
C    -2.831000000    -4.528000000     1.161000000
O    -3.485000000    -4.489000000     2.391000000
C    -2.953000000    -4.590000000     3.694000000
C    -2.919000000    -3.439000000     4.423000000
H    -3.299000000    -2.494000000     4.042000000
C    -2.312000000    -5.770000000     4.125000000
H    -2.403000000    -6.754000000     3.671000000
C    -1.554000000    -5.647000000     5.294000000
H    -1.072000000    -6.497000000     5.772000000
C    -1.512000000    -4.441000000     6.018000000
H    -1.056000000    -4.480000000     7.005000000
C    -2.252000000    -3.342000000     5.666000000
O    -2.221000000    -2.192000000     6.424000000
C    -1.658000000    -1.146000000     5.801000000
C    -2.386000000    -0.005000000     5.670000000
H    -3.408000000    -0.026000000     6.038000000
C    -1.873000000     1.110000000     5.045000000
O    -2.680000000     2.269000000     4.958000000
C    -2.296000000     3.580000000     5.070000000
C    -2.028000000     4.153000000     6.283000000
H    -2.096000000     3.552000000     7.186000000
C    -1.673000000     5.523000000     6.371000000
H    -1.583000000     6.037000000     7.324000000
C    -1.572000000     6.340000000     5.196000000
H    -1.421000000     7.415000000     5.241000000
C    -1.875000000     5.699000000     4.005000000
C    -2.229000000     4.376000000     3.917000000
H    -2.541000000     3.899000000     2.992000000
C    -2.027000000    -0.928000000     1.083000000
H    -2.790000000    -1.361000000     1.725000000
C    -0.704000000    -0.942000000     1.452000000
H    -0.396000000    -1.628000000     2.237000000
C     0.209000000    -0.149000000     0.762000000
H     1.265000000    -0.357000000     0.984000000
C    -0.164000000     0.461000000    -0.466000000
H     0.600000000     0.893000000    -1.107000000
C    -1.559000000     0.477000000    -0.814000000
H    -1.894000000     1.096000000    -1.642000000
C    -2.473000000    -0.140000000    -0.007000000
C    -3.957000000     0.114000000    -0.095000000
O    -4.451000000     0.768000000    -0.997000000
O    -4.695000000    -0.394000000     0.743000000
O    -6.952000000    -2.947000000    -2.161000000
H    -6.621000000    -2.050000000    -2.104000000
H    -6.183000000    -3.472000000    -2.381000000
O    -7.873000000    -0.424000000     1.431000000
H    -7.541000000     0.357000000     0.990000000
H    -7.087000000    -0.905000000     1.691000000
O    -8.152000000     2.521000000    -3.002000000
H    -8.350000000     2.020000000    -2.211000000
H    -8.913000000     3.090000000    -3.122000000
O    -5.455000000    -0.628000000    -2.924000000
H    -4.603000000    -0.902000000    -3.264000000
H    -5.246000000     0.005000000    -2.237000000
O    -8.656000000     4.068000000     1.651000000
H    -9.017000000     3.257000000     2.010000000
H    -7.727000000     4.036000000     1.876000000
O    -6.483000000     2.172000000    -5.102000000
H    -5.695000000     2.612000000    -4.784000000
H    -6.973000000     1.954000000    -4.309000000
O    -4.765000000     1.512000000     2.652000000
H    -4.938000000     1.192000000     1.766000000
H    -3.931000000     1.977000000     2.579000000
O    -7.626000000    -4.553000000     0.005000000
H    -6.937000000    -4.402000000     0.652000000
H    -7.609000000    -3.773000000    -0.549000000
O    -9.226000000     0.687000000    -1.160000000
H    -8.576000000     0.121000000    -0.745000000
H   -10.067000000     0.286000000    -0.942000000
O    -6.497000000     4.346000000    -0.995000000
H    -7.343000000     4.196000000    -1.416000000
H    -6.049000000     4.965000000    -1.572000000
O    -5.882000000    -0.784000000     4.423000000
H    -5.396000000    -0.087000000     3.983000000
H    -6.790000000    -0.652000000     4.149000000
O    -5.821000000    -2.491000000     1.764000000
H    -5.148000000    -1.877000000     1.470000000
H    -5.330000000    -3.229000000     2.125000000
O    -7.174000000    -3.383000000     4.243000000
H    -6.474000000    -2.783000000     3.986000000
H    -7.360000000    -3.157000000     5.154000000
O    -7.919000000    -0.934000000    -4.389000000
H    -7.924000000    -1.319000000    -5.266000000
H    -7.009000000    -0.670000000    -4.249000000
O    -6.380000000     2.792000000     4.366000000
H    -5.838000000     3.577000000     4.292000000
H    -5.985000000     2.170000000     3.755000000
O    -6.655000000     1.696000000     0.067000000
H    -5.841000000     1.615000000    -0.430000000
H    -6.989000000     2.564000000    -0.161000000
O    -2.919000000     2.878000000     0.676000000
H    -3.411000000     2.232000000     0.168000000
H    -2.009000000     2.587000000     0.617000000
O    -5.204000000     4.642000000     1.544000000
H    -4.366000000     4.266000000     1.277000000
H    -5.781000000     4.499000000     0.794000000
O    -9.811000000    -2.654000000     2.242000000
H   -10.409000000    -2.700000000     1.496000000
H    -9.145000000    -2.020000000     1.976000000
