215
-1445.65506
C     2.440000000    -1.581000000     4.195000000
H     1.507000000    -1.997000000     4.566000000
C     2.528000000    -0.250000000     3.784000000
C     3.673000000     0.240000000     3.129000000
H     3.878000000     1.255000000     2.798000000
C     1.470000000     0.800000000     3.839000000
O     0.472000000     0.439000000     4.869000000
H     1.026000000     0.799000000     2.833000000
O     1.844000000     2.176000000     4.080000000
C     1.212000000     3.077000000     3.167000000
C     1.957000000     3.535000000     2.084000000
H     2.933000000     3.075000000     1.955000000
C     1.308000000     4.287000000     1.103000000
O     1.943000000     4.591000000    -0.068000000
C    -0.093000000     4.588000000     1.223000000
C    -0.827000000     5.424000000     0.227000000
H    -1.702000000     5.832000000     0.737000000
C    -1.366000000     4.507000000    -0.832000000
C    -2.709000000     4.148000000    -0.870000000
H    -3.333000000     4.524000000    -0.062000000
H    -0.229000000     6.262000000    -0.137000000
C    -0.806000000     4.218000000     2.366000000
H    -1.858000000     4.466000000     2.478000000
C    -0.085000000     3.429000000     3.337000000
C    -0.875000000     3.031000000     4.595000000
H    -1.608000000     3.762000000     4.943000000
H    -0.179000000     2.946000000     5.432000000
C    -1.537000000     1.657000000     4.262000000
C    -2.858000000     1.626000000     3.848000000
H    -3.388000000     2.559000000     3.676000000
C    -0.864000000     0.450000000     4.477000000
C    -1.528000000    -0.774000000     4.347000000
H    -0.953000000    -1.678000000     4.530000000
C    -2.778000000    -0.837000000     3.749000000
O    -3.194000000    -2.057000000     3.203000000
C    -3.028000000    -2.356000000     1.774000000
C    -2.462000000    -3.743000000     1.660000000
C    -2.254000000    -4.136000000     0.356000000
H    -2.527000000    -3.497000000    -0.480000000
C    -1.891000000    -4.439000000     2.744000000
H    -1.960000000    -3.980000000     3.727000000
O    -4.218000000    -2.101000000     1.012000000
H    -2.273000000    -1.624000000     1.451000000
C    -3.415000000     0.344000000     3.529000000
C    -4.780000000     0.376000000     2.799000000
H    -5.339000000     1.241000000     3.162000000
H    -5.273000000    -0.519000000     3.184000000
C    -4.679000000     0.222000000     1.258000000
C    -4.784000000     1.430000000     0.596000000
H    -4.912000000     2.371000000     1.125000000
C    -4.433000000    -0.933000000     0.479000000
C    -4.305000000    -0.839000000    -0.850000000
H    -4.036000000    -1.785000000    -1.314000000
C    -4.535000000     0.358000000    -1.469000000
O    -4.306000000     0.332000000    -2.901000000
C    -2.994000000     0.573000000    -3.336000000
C    -2.497000000    -0.400000000    -4.368000000
C    -2.921000000    -1.767000000    -4.394000000
H    -3.785000000    -2.128000000    -3.842000000
C    -1.399000000    -0.013000000    -5.145000000
H    -1.014000000     1.003000000    -5.114000000
O    -2.876000000     1.963000000    -3.781000000
H    -2.381000000     0.601000000    -2.423000000
C    -4.661000000     1.503000000    -0.806000000
C    -4.702000000     2.776000000    -1.606000000
H    -5.300000000     3.552000000    -1.123000000
H    -5.280000000     2.699000000    -2.530000000
C    -3.306000000     3.288000000    -1.810000000
C    -2.463000000     2.849000000    -2.820000000
C    -1.166000000     3.248000000    -2.921000000
H    -0.655000000     3.001000000    -3.848000000
C    -0.585000000     3.965000000    -1.882000000
O     0.712000000     4.262000000    -2.017000000
C     1.696000000     3.640000000    -1.111000000
H     1.267000000     2.726000000    -0.674000000
C     2.982000000     3.247000000    -1.872000000
C     4.198000000     3.385000000    -1.298000000
H     4.323000000     3.570000000    -0.234000000
C     2.938000000     2.782000000    -3.204000000
H     1.943000000     2.755000000    -3.640000000
C     4.031000000     2.360000000    -3.854000000
O     4.029000000     1.866000000    -5.096000000
C     5.260000000     2.632000000    -3.242000000
H     6.160000000     2.469000000    -3.829000000
C     5.328000000     2.984000000    -1.896000000
O     6.497000000     3.061000000    -1.198000000
C     6.711000000     2.528000000     0.105000000
C     6.206000000     1.305000000     0.467000000
H     5.791000000     0.594000000    -0.243000000
C     7.305000000     3.403000000     1.085000000
H     7.646000000     4.374000000     0.735000000
C     7.470000000     3.006000000     2.420000000
H     7.849000000     3.650000000     3.210000000
C     6.804000000     1.854000000     2.851000000
H     6.932000000     1.608000000     3.902000000
C     6.242000000     1.013000000     1.871000000
O     5.909000000    -0.252000000     2.330000000
C     4.727000000    -0.682000000     2.949000000
C     4.657000000    -1.982000000     3.374000000
H     5.498000000    -2.650000000     3.204000000
C     3.525000000    -2.442000000     4.039000000
O     3.528000000    -3.836000000     4.147000000
C     2.397000000    -4.455000000     4.756000000
C     1.420000000    -5.046000000     3.945000000
H     1.583000000    -5.042000000     2.871000000
C     2.140000000    -4.185000000     6.113000000
H     2.817000000    -3.554000000     6.683000000
C     0.936000000    -4.697000000     6.612000000
H     0.652000000    -4.423000000     7.625000000
C     0.012000000    -5.407000000     5.827000000
H    -0.933000000    -5.727000000     6.259000000
C     0.272000000    -5.553000000     4.448000000
O    -0.567000000    -6.221000000     3.612000000
C    -1.217000000    -5.629000000     2.526000000
C    -1.056000000    -6.107000000     1.213000000
H    -0.486000000    -7.022000000     1.073000000
C    -1.572000000    -5.356000000     0.185000000
O    -1.401000000    -5.822000000    -1.050000000
C    -2.281000000    -5.720000000    -2.071000000
C    -2.058000000    -4.912000000    -3.200000000
H    -1.145000000    -4.327000000    -3.123000000
C    -3.589000000    -6.316000000    -2.010000000
H    -3.690000000    -6.948000000    -1.131000000
C    -4.500000000    -6.255000000    -3.013000000
H    -5.399000000    -6.820000000    -2.782000000
C    -4.282000000    -5.380000000    -4.069000000
H    -4.991000000    -5.279000000    -4.886000000
C    -3.024000000    -4.799000000    -4.181000000
O    -2.754000000    -3.973000000    -5.303000000
C    -2.285000000    -2.663000000    -5.277000000
C    -1.225000000    -2.238000000    -6.071000000
H    -0.607000000    -2.890000000    -6.683000000
C    -0.735000000    -0.937000000    -5.969000000
O     0.359000000    -0.619000000    -6.697000000
C     1.046000000     0.536000000    -6.635000000
C     0.605000000     1.673000000    -7.313000000
H    -0.297000000     1.617000000    -7.917000000
C     1.325000000     2.845000000    -7.297000000
H     0.952000000     3.739000000    -7.791000000
C     2.506000000     2.891000000    -6.609000000
H     3.008000000     3.855000000    -6.605000000
C     2.962000000     1.767000000    -5.904000000
C     2.230000000     0.572000000    -5.944000000
H     2.673000000    -0.327000000    -5.524000000
C     0.849000000    -2.019000000     0.398000000
H     0.962000000    -2.793000000     1.153000000
C     0.193000000    -0.791000000     0.705000000
H     0.006000000    -0.683000000     1.770000000
C    -0.168000000     0.151000000    -0.278000000
H    -0.703000000     1.076000000     0.038000000
C     0.081000000    -0.218000000    -1.617000000
H     0.063000000     0.565000000    -2.371000000
C     0.616000000    -1.453000000    -1.954000000
H     0.784000000    -1.660000000    -3.008000000
C     0.966000000    -2.387000000    -0.945000000
C     1.490000000    -3.746000000    -1.366000000
O     1.578000000    -4.105000000    -2.564000000
O     2.269000000    -4.293000000    -0.579000000
O     1.907000000    -6.761000000     0.461000000
H     1.660000000    -5.946000000     0.025000000
H     1.549000000    -7.450000000    -0.100000000
O     5.811000000    -5.858000000     3.965000000
H     5.222000000    -5.294000000     4.467000000
H     5.437000000    -5.873000000     3.085000000
O     5.152000000    -9.105000000     1.080000000
H     4.894000000    -9.057000000     0.159000000
H     4.541000000    -8.523000000     1.531000000
O    -0.824000000    -6.883000000    -6.077000000
H    -0.577000000    -6.201000000    -5.453000000
H    -0.786000000    -6.453000000    -6.931000000
O     4.281000000    -3.611000000     1.015000000
H     3.974000000    -2.765000000     1.340000000
H     3.610000000    -3.886000000     0.390000000
O     6.441000000    -4.114000000    -2.788000000
H     6.978000000    -3.962000000    -2.010000000
H     5.608000000    -3.684000000    -2.592000000
O     3.842000000    -2.664000000    -2.676000000
H     3.093000000    -3.259000000    -2.646000000
H     3.822000000    -2.211000000    -1.833000000
O     4.779000000    -8.782000000    -1.661000000
H     5.469000000    -9.217000000    -2.163000000
H     4.558000000    -8.008000000    -2.179000000
O     7.518000000    -4.042000000     0.374000000
H     7.233000000    -4.924000000     0.137000000
H     7.168000000    -3.905000000     1.255000000
O     4.982000000    -1.408000000    -4.719000000
H     5.405000000    -0.675000000    -4.273000000
H     4.578000000    -1.916000000    -4.016000000
O     6.752000000    -6.612000000    -0.182000000
H     5.870000000    -6.889000000     0.068000000
H     6.926000000    -7.080000000    -0.999000000
O     1.858000000    -8.539000000     2.312000000
H     0.952000000    -8.741000000     2.545000000
H     1.787000000    -7.853000000     1.648000000
O     2.365000000    -3.679000000    -6.978000000
H     2.375000000    -4.332000000    -7.678000000
H     3.260000000    -3.677000000    -6.638000000
O     0.461000000    -8.604000000    -4.601000000
H     0.045000000    -7.837000000    -4.994000000
H     1.377000000    -8.546000000    -4.873000000
O     4.744000000    -4.033000000    -5.923000000
H     5.176000000    -4.837000000    -5.633000000
H     5.171000000    -3.338000000    -5.422000000
O     3.493000000    -6.182000000    -2.294000000
H     3.984000000    -5.768000000    -1.585000000
H     2.767000000    -5.582000000    -2.466000000
O     0.699000000    -4.706000000    -4.984000000
H     1.351000000    -4.297000000    -5.553000000
H     0.991000000    -4.497000000    -4.097000000
O     1.613000000    -8.147000000    -1.774000000
H     1.107000000    -8.079000000    -2.584000000
H     2.367000000    -7.574000000    -1.915000000
O     4.274000000    -6.299000000     1.294000000
H     3.410000000    -6.503000000     0.936000000
H     4.289000000    -5.344000000     1.355000000
