215
-1445.96394
C     3.012000000    -0.665000000     4.331000000
H     2.242000000    -0.944000000     5.045000000
C     2.962000000     0.456000000     3.572000000
C     4.014000000     0.678000000     2.682000000
H     3.943000000     1.490000000     1.962000000
C     1.697000000     1.378000000     3.550000000
O     0.894000000     1.291000000     4.794000000
H     1.166000000     1.007000000     2.661000000
O     2.089000000     2.745000000     3.316000000
C     1.417000000     3.426000000     2.358000000
C     1.994000000     3.708000000     1.170000000
H     3.013000000     3.388000000     0.968000000
C     1.286000000     4.388000000     0.160000000
O     1.927000000     4.466000000    -1.087000000
C    -0.005000000     4.820000000     0.463000000
C    -0.877000000     5.518000000    -0.601000000
H    -1.588000000     6.167000000    -0.086000000
C    -1.512000000     4.440000000    -1.502000000
C    -2.744000000     3.904000000    -1.122000000
H    -3.260000000     4.308000000    -0.254000000
H    -0.180000000     6.152000000    -1.153000000
C    -0.591000000     4.556000000     1.702000000
H    -1.620000000     4.829000000     1.918000000
C     0.135000000     3.889000000     2.658000000
C    -0.492000000     3.728000000     3.992000000
H    -1.102000000     4.517000000     4.435000000
H     0.322000000     3.747000000     4.720000000
C    -1.151000000     2.361000000     4.250000000
C    -2.534000000     2.167000000     3.871000000
H    -3.045000000     3.001000000     3.396000000
C    -0.463000000     1.196000000     4.611000000
C    -1.007000000    -0.070000000     4.598000000
H    -0.287000000    -0.872000000     4.741000000
C    -2.330000000    -0.238000000     4.312000000
O    -2.761000000    -1.551000000     4.047000000
C    -2.826000000    -1.972000000     2.649000000
C    -2.318000000    -3.417000000     2.544000000
C    -2.888000000    -4.380000000     1.712000000
H    -3.805000000    -4.111000000     1.194000000
C    -1.224000000    -3.834000000     3.318000000
H    -0.702000000    -3.077000000     3.898000000
O    -4.220000000    -1.922000000     2.205000000
H    -2.350000000    -1.174000000     2.060000000
C    -3.126000000     0.858000000     3.978000000
C    -4.545000000     0.637000000     3.438000000
H    -5.086000000     1.560000000     3.660000000
H    -5.099000000    -0.164000000     3.931000000
C    -4.561000000     0.389000000     1.925000000
C    -4.508000000     1.435000000     0.982000000
H    -4.435000000     2.437000000     1.397000000
C    -4.503000000    -0.892000000     1.366000000
C    -4.375000000    -1.143000000    -0.011000000
H    -4.242000000    -2.170000000    -0.340000000
C    -4.457000000    -0.139000000    -0.905000000
O    -4.343000000    -0.351000000    -2.260000000
C    -3.033000000    -0.027000000    -2.859000000
C    -2.412000000    -1.209000000    -3.637000000
C    -2.676000000    -2.551000000    -3.375000000
H    -3.482000000    -2.767000000    -2.677000000
C    -1.456000000    -0.900000000    -4.639000000
H    -1.135000000     0.134000000    -4.731000000
O    -3.095000000     1.220000000    -3.527000000
H    -2.333000000     0.114000000    -2.022000000
C    -4.456000000     1.195000000    -0.399000000
C    -4.620000000     2.369000000    -1.275000000
H    -5.067000000     3.193000000    -0.716000000
H    -5.336000000     2.120000000    -2.061000000
C    -3.338000000     2.891000000    -1.792000000
C    -2.690000000     2.356000000    -2.836000000
C    -1.402000000     2.779000000    -3.161000000
H    -0.856000000     2.353000000    -3.999000000
C    -0.824000000     3.843000000    -2.538000000
O     0.519000000     4.105000000    -2.800000000
C     1.516000000     3.463000000    -2.030000000
H     1.027000000     2.619000000    -1.522000000
C     2.699000000     3.022000000    -2.810000000
C     3.952000000     2.853000000    -2.221000000
H     4.062000000     3.074000000    -1.162000000
C     2.503000000     2.749000000    -4.210000000
H     1.576000000     2.903000000    -4.755000000
C     3.565000000     2.197000000    -4.924000000
O     3.352000000     1.931000000    -6.284000000
C     4.861000000     2.150000000    -4.429000000
H     5.637000000     1.831000000    -5.120000000
C     5.086000000     2.384000000    -3.046000000
O     6.336000000     2.284000000    -2.539000000
C     6.593000000     2.317000000    -1.188000000
C     6.330000000     1.142000000    -0.436000000
H     6.132000000     0.173000000    -0.886000000
C     6.828000000     3.472000000    -0.522000000
H     7.041000000     4.392000000    -1.059000000
C     6.972000000     3.565000000     0.873000000
H     6.977000000     4.547000000     1.339000000
C     6.680000000     2.463000000     1.617000000
H     6.664000000     2.501000000     2.703000000
C     6.382000000     1.227000000     0.966000000
O     6.296000000     0.217000000     1.795000000
C     5.169000000    -0.103000000     2.569000000
C     5.158000000    -1.278000000     3.338000000
H     5.826000000    -2.124000000     3.200000000
C     4.107000000    -1.496000000     4.225000000
O     4.128000000    -2.665000000     5.020000000
C     2.992000000    -3.279000000     5.465000000
C     2.310000000    -4.068000000     4.546000000
H     2.688000000    -4.230000000     3.540000000
C     2.433000000    -3.025000000     6.703000000
H     2.892000000    -2.337000000     7.408000000
C     1.177000000    -3.587000000     7.034000000
H     0.729000000    -3.288000000     7.978000000
C     0.518000000    -4.430000000     6.104000000
H    -0.476000000    -4.817000000     6.316000000
C     1.071000000    -4.636000000     4.845000000
O     0.418000000    -5.511000000     3.978000000
C    -0.676000000    -5.120000000     3.219000000
C    -1.272000000    -5.995000000     2.324000000
H    -0.841000000    -6.977000000     2.151000000
C    -2.317000000    -5.619000000     1.549000000
O    -2.887000000    -6.462000000     0.649000000
C    -3.293000000    -6.152000000    -0.564000000
C    -2.487000000    -5.387000000    -1.438000000
H    -1.529000000    -4.921000000    -1.222000000
C    -4.517000000    -6.614000000    -0.964000000
H    -5.022000000    -7.250000000    -0.242000000
C    -4.995000000    -6.470000000    -2.251000000
H    -5.794000000    -7.118000000    -2.602000000
C    -4.179000000    -5.749000000    -3.164000000
H    -4.346000000    -5.692000000    -4.237000000
C    -2.942000000    -5.293000000    -2.779000000
O    -2.089000000    -4.845000000    -3.723000000
C    -1.988000000    -3.505000000    -4.061000000
C    -1.044000000    -3.193000000    -5.020000000
H    -0.464000000    -3.999000000    -5.460000000
C    -0.772000000    -1.896000000    -5.360000000
O     0.226000000    -1.668000000    -6.269000000
C     0.646000000    -0.429000000    -6.770000000
C    -0.122000000     0.152000000    -7.766000000
H    -1.011000000    -0.307000000    -8.191000000
C     0.374000000     1.290000000    -8.348000000
H    -0.096000000     1.680000000    -9.247000000
C     1.533000000     1.936000000    -7.813000000
H     1.844000000     2.838000000    -8.334000000
C     2.233000000     1.353000000    -6.770000000
C     1.840000000     0.131000000    -6.286000000
H     2.467000000    -0.500000000    -5.660000000
C     1.896000000    -1.691000000     1.015000000
H     2.303000000    -2.531000000     1.571000000
C     0.741000000    -1.153000000     1.575000000
H     0.386000000    -1.623000000     2.488000000
C     0.047000000    -0.281000000     0.779000000
H    -0.885000000     0.084000000     0.967000000
C     0.535000000     0.172000000    -0.456000000
H    -0.145000000     0.739000000    -1.088000000
C     1.696000000    -0.352000000    -0.968000000
H     2.016000000    -0.075000000    -1.969000000
C     2.425000000    -1.274000000    -0.202000000
C     3.605000000    -2.078000000    -0.767000000
O     3.983000000    -1.862000000    -1.914000000
O     4.177000000    -2.908000000    -0.112000000
O     6.291000000    -4.429000000     2.216000000
H     5.409000000    -4.749000000     2.026000000
H     6.492000000    -3.837000000     1.491000000
O     3.885000000    -5.263000000     1.078000000
H     3.935000000    -4.545000000     0.448000000
H     3.001000000    -5.614000000     0.973000000
O     3.180000000    -3.101000000    -5.740000000
H     2.591000000    -3.801000000    -5.460000000
H     3.746000000    -2.946000000    -4.984000000
O     8.758000000    -2.002000000     2.119000000
H     8.327000000    -1.290000000     2.591000000
H     8.097000000    -2.315000000     1.502000000
O     5.717000000    -1.123000000    -7.062000000
H     5.334000000    -1.160000000    -6.186000000
H     5.877000000    -2.039000000    -7.292000000
O     5.185000000    -1.370000000    -4.241000000
H     5.877000000    -0.778000000    -3.946000000
H     4.699000000    -1.586000000    -3.445000000
O     7.905000000    -0.196000000    -3.423000000
H     7.982000000     0.535000000    -2.810000000
H     8.633000000    -0.776000000    -3.198000000
O     7.485000000    -7.010000000    -2.722000000
H     8.360000000    -6.634000000    -2.814000000
H     6.959000000    -6.303000000    -2.346000000
O     3.230000000    -4.453000000    -2.798000000
H     2.549000000    -4.634000000    -2.150000000
H     3.406000000    -3.517000000    -2.706000000
O    10.215000000    -2.599000000    -0.374000000
H     9.784000000    -2.476000000     0.471000000
H    11.111000000    -2.853000000    -0.151000000
O     1.022000000    -3.991000000    -0.834000000
H     0.877000000    -3.106000000    -0.501000000
H     0.627000000    -4.563000000    -0.175000000
O     6.302000000    -4.810000000    -1.933000000
H     5.503000000    -4.303000000    -2.075000000
H     6.402000000    -4.838000000    -0.981000000
O     1.357000000    -6.902000000    -2.609000000
H     2.050000000    -6.769000000    -3.256000000
H     0.548000000    -6.908000000    -3.122000000
O     1.671000000    -6.618000000     0.989000000
H     1.098000000    -7.140000000     0.427000000
H     1.516000000    -6.958000000     1.870000000
O     4.231000000    -8.654000000    -2.590000000
H     3.692000000    -8.082000000    -3.136000000
H     4.364000000    -8.158000000    -1.782000000
O     3.252000000    -6.563000000    -4.634000000
H     3.937000000    -6.225000000    -5.211000000
H     3.209000000    -5.929000000    -3.918000000
O     6.765000000    -3.899000000    -4.607000000
H     6.859000000    -4.013000000    -3.661000000
H     6.474000000    -2.993000000    -4.711000000
O     6.718000000    -2.594000000     0.195000000
H     5.761000000    -2.626000000     0.177000000
H     6.949000000    -1.960000000    -0.483000000
O     5.035000000    -7.755000000     0.168000000
H     4.512000000    -7.022000000     0.493000000
H     5.799000000    -7.778000000     0.745000000
