215
-1460.20145
C     2.763000000    -1.338000000     3.572000000
H     1.842000000    -1.758000000     3.969000000
C     2.841000000     0.045000000     3.371000000
C     4.058000000     0.575000000     2.916000000
H     4.149000000     1.643000000     2.738000000
C     1.632000000     0.931000000     3.654000000
O     0.898000000     0.487000000     4.729000000
H     0.956000000     0.906000000     2.786000000
O     2.118000000     2.259000000     3.935000000
C     1.580000000     3.239000000     3.224000000
C     2.140000000     3.554000000     2.002000000
H     3.137000000     3.212000000     1.735000000
C     1.369000000     4.370000000     1.102000000
O     1.985000000     4.548000000    -0.144000000
C     0.092000000     4.781000000     1.415000000
C    -0.700000000     5.510000000     0.354000000
H    -1.395000000     6.205000000     0.829000000
C    -1.339000000     4.596000000    -0.654000000
C    -2.664000000     4.177000000    -0.490000000
H    -3.086000000     4.363000000     0.494000000
H    -0.057000000     6.135000000    -0.269000000
C    -0.482000000     4.353000000     2.580000000
H    -1.500000000     4.646000000     2.824000000
C     0.252000000     3.607000000     3.515000000
C    -0.530000000     3.003000000     4.721000000
H    -1.204000000     3.761000000     5.127000000
H     0.287000000     2.926000000     5.441000000
C    -1.208000000     1.672000000     4.422000000
C    -2.538000000     1.619000000     3.982000000
H    -3.086000000     2.551000000     3.872000000
C    -0.430000000     0.446000000     4.501000000
C    -1.035000000    -0.748000000     4.260000000
H    -0.603000000    -1.685000000     4.601000000
C    -2.408000000    -0.823000000     3.957000000
O    -2.927000000    -1.998000000     3.537000000
C    -2.909000000    -2.207000000     2.104000000
C    -2.197000000    -3.453000000     1.735000000
C    -2.444000000    -4.036000000     0.535000000
H    -3.086000000    -3.544000000    -0.191000000
C    -1.361000000    -4.080000000     2.711000000
H    -1.203000000    -3.647000000     3.696000000
O    -4.262000000    -2.096000000     1.613000000
H    -2.411000000    -1.352000000     1.624000000
C    -3.147000000     0.345000000     3.770000000
C    -4.566000000     0.363000000     3.267000000
H    -5.134000000     1.130000000     3.797000000
H    -5.045000000    -0.551000000     3.625000000
C    -4.706000000     0.307000000     1.769000000
C    -4.795000000     1.545000000     1.123000000
H    -4.810000000     2.472000000     1.691000000
C    -4.565000000    -0.885000000     1.017000000
C    -4.654000000    -0.800000000    -0.375000000
H    -4.649000000    -1.729000000    -0.941000000
C    -4.737000000     0.439000000    -1.011000000
O    -4.697000000     0.537000000    -2.369000000
C    -3.377000000     0.754000000    -2.959000000
C    -3.160000000    -0.187000000    -4.153000000
C    -3.522000000    -1.556000000    -4.114000000
H    -4.007000000    -1.845000000    -3.186000000
C    -2.511000000     0.232000000    -5.314000000
H    -2.088000000     1.233000000    -5.278000000
O    -3.304000000     2.090000000    -3.320000000
H    -2.552000000     0.556000000    -2.259000000
C    -4.775000000     1.629000000    -0.247000000
C    -4.746000000     2.967000000    -1.019000000
H    -5.124000000     3.822000000    -0.454000000
H    -5.351000000     2.818000000    -1.916000000
C    -3.363000000     3.380000000    -1.357000000
C    -2.737000000     3.023000000    -2.513000000
C    -1.435000000     3.349000000    -2.750000000
H    -0.924000000     3.003000000    -3.645000000
C    -0.670000000     4.104000000    -1.811000000
O     0.685000000     4.315000000    -1.977000000
C     1.641000000     3.593000000    -1.159000000
H     1.195000000     2.697000000    -0.703000000
C     2.806000000     3.036000000    -1.962000000
C     4.147000000     3.239000000    -1.668000000
H     4.416000000     4.061000000    -1.009000000
C     2.493000000     2.064000000    -2.933000000
H     1.460000000     1.922000000    -3.240000000
C     3.429000000     1.347000000    -3.640000000
O     3.106000000     0.633000000    -4.757000000
C     4.745000000     1.430000000    -3.205000000
H     5.461000000     0.674000000    -3.517000000
C     5.103000000     2.387000000    -2.239000000
O     6.406000000     2.315000000    -1.833000000
C     6.788000000     2.298000000    -0.517000000
C     6.128000000     1.462000000     0.385000000
H     5.243000000     0.883000000     0.137000000
C     7.818000000     3.138000000    -0.145000000
H     8.133000000     3.930000000    -0.820000000
C     8.379000000     3.070000000     1.150000000
H     9.148000000     3.743000000     1.519000000
C     7.907000000     2.082000000     1.987000000
H     8.404000000     1.942000000     2.944000000
C     6.734000000     1.340000000     1.659000000
O     6.359000000     0.370000000     2.586000000
C     5.143000000    -0.192000000     2.812000000
C     5.105000000    -1.520000000     3.174000000
H     6.018000000    -2.110000000     3.200000000
C     3.903000000    -2.157000000     3.519000000
O     3.886000000    -3.486000000     3.745000000
C     2.865000000    -4.241000000     4.293000000
C     1.758000000    -4.658000000     3.536000000
H     1.624000000    -4.411000000     2.486000000
C     3.136000000    -4.745000000     5.573000000
H     4.009000000    -4.529000000     6.183000000
C     2.226000000    -5.728000000     6.068000000
H     2.463000000    -6.257000000     6.987000000
C     1.080000000    -6.080000000     5.361000000
H     0.372000000    -6.807000000     5.751000000
C     0.825000000    -5.503000000     4.096000000
O    -0.168000000    -6.059000000     3.395000000
C    -0.835000000    -5.344000000     2.429000000
C    -1.029000000    -5.929000000     1.229000000
H    -0.669000000    -6.938000000     1.050000000
C    -1.823000000    -5.287000000     0.254000000
O    -1.982000000    -5.905000000    -0.995000000
C    -2.898000000    -5.544000000    -1.912000000
C    -2.568000000    -4.817000000    -3.058000000
H    -1.562000000    -4.407000000    -3.078000000
C    -4.238000000    -5.917000000    -1.663000000
H    -4.535000000    -6.366000000    -0.719000000
C    -5.147000000    -5.696000000    -2.647000000
H    -6.181000000    -5.948000000    -2.425000000
C    -4.837000000    -5.039000000    -3.792000000
H    -5.589000000    -4.782000000    -4.534000000
C    -3.581000000    -4.504000000    -3.986000000
O    -3.392000000    -3.756000000    -5.039000000
C    -3.036000000    -2.429000000    -5.056000000
C    -2.260000000    -2.018000000    -6.142000000
H    -1.908000000    -2.737000000    -6.877000000
C    -1.967000000    -0.658000000    -6.240000000
O    -1.014000000    -0.295000000    -7.174000000
C     0.082000000     0.512000000    -6.910000000
C     0.425000000     1.509000000    -7.808000000
H    -0.217000000     1.633000000    -8.677000000
C     1.426000000     2.412000000    -7.487000000
H     1.576000000     3.349000000    -8.016000000
C     2.343000000     2.107000000    -6.440000000
H     3.183000000     2.777000000    -6.274000000
C     2.169000000     0.968000000    -5.685000000
C     1.003000000     0.244000000    -5.831000000
H     0.804000000    -0.592000000    -5.165000000
C     0.393000000    -2.058000000     0.161000000
H     0.582000000    -2.606000000     1.080000000
C    -0.200000000    -0.769000000     0.244000000
H    -0.568000000    -0.380000000     1.190000000
C    -0.352000000    -0.008000000    -0.890000000
H    -0.840000000     0.876000000    -0.874000000
C     0.128000000    -0.469000000    -2.142000000
H     0.011000000     0.043000000    -3.093000000
C     0.622000000    -1.763000000    -2.229000000
H     0.757000000    -2.315000000    -3.156000000
C     0.814000000    -2.583000000    -1.098000000
C     1.426000000    -4.009000000    -1.159000000
O     1.751000000    -4.540000000    -2.194000000
O     1.909000000    -4.541000000    -0.166000000
O     2.996000000    -6.609000000     1.402000000
H     2.660000000    -5.852000000     0.922000000
H     2.220000000    -7.135000000     1.593000000
O     5.614000000    -5.651000000     0.328000000
H     4.896000000    -6.204000000     0.636000000
H     5.253000000    -4.764000000     0.335000000
O     2.788000000    -7.248000000    -5.571000000
H     3.261000000    -6.771000000    -6.252000000
H     2.118000000    -6.634000000    -5.270000000
O     1.125000000    -4.638000000    -7.067000000
H     1.710000000    -4.510000000    -6.320000000
H     0.319000000    -4.986000000    -6.684000000
O     3.893000000    -3.197000000     0.663000000
H     3.754000000    -3.195000000     1.610000000
H     3.159000000    -3.703000000     0.314000000
O     4.500000000    -4.536000000    -2.331000000
H     3.567000000    -4.478000000    -2.122000000
H     4.884000000    -3.756000000    -1.929000000
O     5.847000000    -8.908000000    -2.476000000
H     4.995000000    -8.585000000    -2.769000000
H     6.439000000    -8.165000000    -2.596000000
O     4.445000000    -2.403000000    -6.023000000
H     4.758000000    -1.500000000    -5.968000000
H     3.697000000    -2.362000000    -6.618000000
O     5.707000000    -2.338000000    -1.222000000
H     6.492000000    -2.278000000    -0.677000000
H     4.996000000    -2.494000000    -0.600000000
O     0.688000000   -10.456000000    -0.310000000
H     0.807000000   -10.113000000    -1.195000000
H     0.673000000    -9.679000000     0.249000000
O     7.364000000    -2.302000000    -3.773000000
H     6.436000000    -2.358000000    -4.003000000
H     7.824000000    -2.539000000    -4.578000000
O    -1.214000000    -5.452000000    -5.874000000
H    -0.856000000    -5.745000000    -5.036000000
H    -2.080000000    -5.108000000    -5.657000000
O     0.979000000    -8.522000000     2.178000000
H     1.189000000    -9.083000000     2.925000000
H     0.150000000    -8.107000000     2.416000000
O     0.363000000    -6.127000000    -3.625000000
H     0.932000000    -5.610000000    -3.054000000
H     0.390000000    -7.009000000    -3.255000000
O     3.972000000    -7.067000000    -3.080000000
H     3.897000000    -7.076000000    -4.034000000
H     3.974000000    -6.138000000    -2.849000000
O     2.609000000    -4.241000000    -4.830000000
H     3.177000000    -3.473000000    -4.886000000
H     2.324000000    -4.261000000    -3.916000000
O     1.529000000    -8.006000000    -1.493000000
H     1.336000000    -7.225000000    -0.975000000
H     2.395000000    -7.839000000    -1.864000000
O     4.393000000    -7.086000000     3.736000000
H     3.712000000    -6.986000000     4.401000000
H     3.931000000    -6.987000000     2.904000000
O     6.605000000    -5.939000000    -3.492000000
H     5.834000000    -5.655000000    -3.001000000
H     6.258000000    -6.235000000    -4.333000000
