215
-1452.81749
C     2.970000000    -0.575000000     3.490000000
H     1.968000000    -0.614000000     3.910000000
C     3.429000000     0.696000000     2.963000000
C     4.767000000     0.710000000     2.472000000
H     5.169000000     1.573000000     1.947000000
C     2.529000000     1.924000000     2.851000000
O     1.780000000     2.112000000     4.068000000
H     1.804000000     1.700000000     2.056000000
O     3.280000000     3.115000000     2.554000000
C     2.685000000     3.906000000     1.564000000
C     3.188000000     3.621000000     0.310000000
H     4.024000000     2.936000000     0.195000000
C     2.592000000     4.186000000    -0.760000000
O     3.024000000     3.702000000    -2.000000000
C     1.348000000     4.894000000    -0.644000000
C     0.563000000     5.400000000    -1.871000000
H    -0.003000000     6.320000000    -1.712000000
C    -0.382000000     4.288000000    -2.268000000
C    -1.713000000     4.251000000    -1.774000000
H    -2.008000000     5.007000000    -1.051000000
H     1.335000000     5.605000000    -2.616000000
C     0.867000000     5.137000000     0.641000000
H    -0.019000000     5.746000000     0.796000000
C     1.477000000     4.580000000     1.765000000
C     0.755000000     4.661000000     3.080000000
H     0.049000000     5.493000000     3.031000000
H     1.408000000     4.916000000     3.917000000
C    -0.108000000     3.489000000     3.366000000
C    -1.544000000     3.528000000     3.179000000
H    -2.007000000     4.446000000     2.828000000
C     0.419000000     2.288000000     3.913000000
C    -0.358000000     1.131000000     4.229000000
H     0.060000000     0.261000000     4.728000000
C    -1.698000000     1.182000000     3.974000000
O    -2.448000000     0.061000000     4.132000000
C    -2.789000000    -0.706000000     2.968000000
C    -2.681000000    -2.196000000     3.232000000
C    -3.469000000    -3.080000000     2.412000000
H    -4.146000000    -2.719000000     1.641000000
C    -1.796000000    -2.763000000     4.179000000
H    -1.145000000    -2.153000000     4.800000000
O    -4.151000000    -0.314000000     2.689000000
H    -2.134000000    -0.373000000     2.150000000
C    -2.329000000     2.423000000     3.575000000
C    -3.842000000     2.454000000     3.350000000
H    -4.187000000     3.471000000     3.549000000
H    -4.392000000     1.899000000     4.113000000
C    -4.120000000     1.924000000     1.900000000
C    -4.089000000     2.785000000     0.773000000
H    -3.744000000     3.802000000     0.940000000
C    -4.373000000     0.575000000     1.689000000
C    -4.587000000     0.113000000     0.385000000
H    -4.791000000    -0.948000000     0.272000000
C    -4.527000000     0.995000000    -0.703000000
O    -4.555000000     0.492000000    -1.950000000
C    -3.318000000     0.228000000    -2.654000000
C    -3.266000000    -1.101000000    -3.415000000
C    -3.650000000    -2.283000000    -2.739000000
H    -3.923000000    -2.220000000    -1.688000000
C    -2.764000000    -1.238000000    -4.700000000
H    -2.437000000    -0.335000000    -5.208000000
O    -3.006000000     1.365000000    -3.578000000
H    -2.520000000     0.106000000    -1.907000000
C    -4.318000000     2.336000000    -0.561000000
C    -4.033000000     3.241000000    -1.801000000
H    -4.307000000     4.257000000    -1.510000000
H    -4.690000000     2.892000000    -2.601000000
C    -2.613000000     3.275000000    -2.222000000
C    -2.162000000     2.306000000    -3.123000000
C    -0.896000000     2.445000000    -3.645000000
H    -0.686000000     1.822000000    -4.511000000
C    -0.002000000     3.362000000    -3.213000000
O     1.263000000     3.179000000    -3.564000000
C     2.198000000     2.708000000    -2.564000000
H     1.615000000     2.293000000    -1.728000000
C     2.954000000     1.452000000    -3.049000000
C     4.306000000     1.251000000    -2.712000000
H     4.880000000     2.009000000    -2.186000000
C     2.257000000     0.440000000    -3.774000000
H     1.252000000     0.715000000    -4.084000000
C     2.857000000    -0.746000000    -4.080000000
O     2.237000000    -1.649000000    -4.861000000
C     4.124000000    -1.031000000    -3.529000000
H     4.691000000    -1.929000000    -3.760000000
C     4.815000000    -0.005000000    -2.966000000
O     6.128000000    -0.281000000    -2.603000000
C     6.836000000     0.083000000    -1.473000000
C     6.471000000    -0.335000000    -0.170000000
H     5.627000000    -0.994000000     0.015000000
C     7.843000000     1.007000000    -1.675000000
H     8.147000000     1.328000000    -2.668000000
C     8.517000000     1.519000000    -0.530000000
H     9.407000000     2.109000000    -0.734000000
C     8.183000000     1.079000000     0.757000000
H     8.632000000     1.437000000     1.680000000
C     7.196000000     0.145000000     0.881000000
O     6.831000000    -0.255000000     2.175000000
C     5.547000000    -0.393000000     2.453000000
C     5.118000000    -1.568000000     2.997000000
H     5.722000000    -2.457000000     2.835000000
C     3.785000000    -1.705000000     3.478000000
O     3.308000000    -2.896000000     3.820000000
C     2.495000000    -3.220000000     4.827000000
C     1.216000000    -3.698000000     4.539000000
H     0.849000000    -3.699000000     3.516000000
C     2.980000000    -3.315000000     6.111000000
H     3.978000000    -2.926000000     6.295000000
C     2.260000000    -3.924000000     7.166000000
H     2.679000000    -4.139000000     8.146000000
C     0.900000000    -4.215000000     6.814000000
H     0.175000000    -4.494000000     7.575000000
C     0.352000000    -4.184000000     5.543000000
O    -0.895000000    -4.580000000     5.264000000
C    -1.723000000    -4.117000000     4.263000000
C    -2.533000000    -4.942000000     3.500000000
H    -2.552000000    -6.002000000     3.740000000
C    -3.541000000    -4.426000000     2.698000000
O    -4.377000000    -5.320000000     2.087000000
C    -4.954000000    -4.984000000     0.861000000
C    -4.201000000    -4.946000000    -0.326000000
H    -3.170000000    -5.282000000    -0.261000000
C    -6.315000000    -4.577000000     0.736000000
H    -6.913000000    -4.616000000     1.642000000
C    -6.867000000    -4.195000000    -0.501000000
H    -7.931000000    -3.975000000    -0.458000000
C    -6.133000000    -4.342000000    -1.666000000
H    -6.579000000    -4.162000000    -2.641000000
C    -4.808000000    -4.610000000    -1.516000000
O    -3.973000000    -4.645000000    -2.616000000
C    -3.636000000    -3.509000000    -3.405000000
C    -3.146000000    -3.574000000    -4.674000000
H    -3.007000000    -4.527000000    -5.178000000
C    -2.783000000    -2.453000000    -5.338000000
O    -2.101000000    -2.570000000    -6.512000000
C    -0.877000000    -1.925000000    -6.589000000
C    -0.788000000    -0.949000000    -7.573000000
H    -1.624000000    -0.788000000    -8.249000000
C     0.371000000    -0.180000000    -7.597000000
H     0.494000000     0.548000000    -8.395000000
C     1.507000000    -0.462000000    -6.853000000
H     2.427000000     0.092000000    -7.023000000
C     1.306000000    -1.395000000    -5.815000000
C     0.118000000    -2.151000000    -5.686000000
H    -0.133000000    -2.967000000    -5.013000000
C     1.686000000    -0.769000000     0.113000000
H     2.722000000    -0.526000000     0.336000000
C     0.735000000     0.221000000     0.186000000
H     1.041000000     1.257000000     0.307000000
C    -0.596000000    -0.089000000    -0.109000000
H    -1.321000000     0.746000000     0.024000000
C    -0.917000000    -1.438000000    -0.483000000
H    -1.925000000    -1.746000000    -0.748000000
C     0.004000000    -2.434000000    -0.409000000
H    -0.288000000    -3.461000000    -0.613000000
C     1.366000000    -2.088000000    -0.155000000
C     2.490000000    -3.199000000    -0.176000000
O     2.276000000    -4.348000000    -0.528000000
O     3.619000000    -2.795000000    -0.092000000
O     5.818000000    -4.157000000     0.859000000
H     6.403000000    -3.588000000     0.358000000
H     4.967000000    -3.720000000     0.817000000
O     3.122000000    -7.945000000    -5.380000000
H     3.648000000    -8.020000000    -6.177000000
H     3.328000000    -7.076000000    -5.037000000
O    -1.075000000    -6.928000000     0.100000000
H    -1.147000000    -7.878000000     0.186000000
H    -0.482000000    -6.667000000     0.804000000
O     1.607000000    -3.993000000    -3.244000000
H     1.954000000    -3.117000000    -3.413000000
H     1.923000000    -4.210000000    -2.367000000
O     7.662000000    -2.853000000    -3.694000000
H     7.871000000    -2.009000000    -4.095000000
H     6.922000000    -3.184000000    -4.204000000
O     6.384000000    -7.289000000    -4.264000000
H     6.748000000    -7.129000000    -3.393000000
H     5.540000000    -6.837000000    -4.258000000
O     2.581000000    -8.270000000    -2.021000000
H     1.859000000    -7.705000000    -2.297000000
H     3.024000000    -7.775000000    -1.332000000
O     6.292000000    -4.731000000     3.630000000
H     5.981000000    -4.560000000     2.741000000
H     7.245000000    -4.778000000     3.546000000
O     5.114000000    -3.878000000    -2.166000000
H     5.719000000    -3.200000000    -2.466000000
H     4.541000000    -3.430000000    -1.544000000
O     3.938000000    -5.315000000    -4.444000000
H     3.689000000    -5.063000000    -3.555000000
H     4.215000000    -4.497000000    -4.856000000
O     1.021000000    -5.582000000    -5.717000000
H     0.411000000    -5.938000000    -5.071000000
H     1.541000000    -4.943000000    -5.229000000
O     3.857000000    -5.795000000     3.093000000
H     4.669000000    -5.587000000     3.554000000
H     3.399000000    -6.401000000     3.675000000
O     7.146000000    -6.325000000    -1.695000000
H     6.805000000    -6.614000000    -0.848000000
H     6.989000000    -5.381000000    -1.707000000
O     0.433000000    -6.485000000    -2.245000000
H     0.600000000    -5.559000000    -2.426000000
H     0.006000000    -6.488000000    -1.389000000
O     3.400000000    -6.734000000    -0.103000000
H     3.215000000    -5.804000000    -0.235000000
H     3.065000000    -6.923000000     0.773000000
O     1.003000000    -5.680000000     1.517000000
H     1.419000000    -5.112000000     0.868000000
H     1.649000000    -5.756000000     2.219000000
O    -0.699000000    -7.706000000    -4.221000000
H    -0.358000000    -7.277000000    -3.437000000
H    -0.209000000    -8.526000000    -4.278000000
O     7.730000000    -3.070000000    -1.045000000
H     8.165000000    -2.234000000    -0.874000000
H     7.656000000    -3.110000000    -1.999000000
O     6.209000000    -6.940000000     0.670000000
H     6.157000000    -6.013000000     0.901000000
H     5.329000000    -7.278000000     0.836000000
