215
-1449.71523
C     3.007000000    -1.491000000     3.858000000
H     2.159000000    -1.714000000     4.501000000
C     3.065000000    -0.231000000     3.320000000
C     4.129000000     0.159000000     2.520000000
H     4.110000000     1.101000000     1.978000000
C     1.915000000     0.685000000     3.555000000
O     1.148000000     0.256000000     4.713000000
H     1.394000000     0.606000000     2.590000000
O     2.323000000     2.086000000     3.728000000
C     1.540000000     3.051000000     3.176000000
C     2.039000000     3.628000000     2.028000000
H     3.052000000     3.351000000     1.750000000
C     1.302000000     4.567000000     1.318000000
O     1.806000000     4.920000000     0.047000000
C    -0.005000000     4.880000000     1.828000000
C    -1.017000000     5.583000000     0.884000000
H    -1.771000000     6.007000000     1.551000000
C    -1.562000000     4.702000000    -0.281000000
C    -2.851000000     4.078000000    -0.092000000
H    -3.433000000     4.336000000     0.789000000
H    -0.396000000     6.349000000     0.414000000
C    -0.461000000     4.355000000     3.036000000
H    -1.503000000     4.474000000     3.320000000
C     0.318000000     3.456000000     3.690000000
C    -0.208000000     2.781000000     4.919000000
H    -0.871000000     3.481000000     5.432000000
H     0.579000000     2.513000000     5.627000000
C    -0.898000000     1.413000000     4.664000000
C    -2.278000000     1.289000000     4.317000000
H    -3.001000000     2.099000000     4.272000000
C    -0.183000000     0.221000000     4.679000000
C    -0.774000000    -1.012000000     4.531000000
H    -0.272000000    -1.973000000     4.607000000
C    -2.038000000    -1.096000000     4.044000000
O    -2.521000000    -2.333000000     3.624000000
C    -2.600000000    -2.463000000     2.206000000
C    -1.946000000    -3.750000000     1.732000000
C    -2.376000000    -4.274000000     0.492000000
H    -3.203000000    -3.791000000    -0.023000000
C    -0.811000000    -4.323000000     2.398000000
H    -0.450000000    -3.992000000     3.368000000
O    -3.941000000    -2.390000000     1.742000000
H    -2.134000000    -1.644000000     1.638000000
C    -2.784000000     0.053000000     3.934000000
C    -4.278000000    -0.039000000     3.542000000
H    -4.884000000     0.770000000     3.955000000
H    -4.686000000    -1.003000000     3.853000000
C    -4.385000000     0.003000000     2.004000000
C    -4.711000000     1.185000000     1.355000000
H    -4.746000000     2.158000000     1.838000000
C    -4.316000000    -1.147000000     1.239000000
C    -4.435000000    -1.089000000    -0.133000000
H    -4.364000000    -2.000000000    -0.722000000
C    -4.582000000     0.110000000    -0.810000000
O    -4.495000000     0.142000000    -2.154000000
C    -3.274000000     0.637000000    -2.785000000
C    -2.883000000    -0.199000000    -4.000000000
C    -3.370000000    -1.513000000    -4.067000000
H    -4.185000000    -1.881000000    -3.449000000
C    -1.789000000     0.167000000    -4.812000000
H    -1.242000000     1.094000000    -4.659000000
O    -3.400000000     2.058000000    -3.090000000
H    -2.390000000     0.666000000    -2.131000000
C    -4.747000000     1.223000000    -0.007000000
C    -4.850000000     2.588000000    -0.641000000
H    -5.416000000     3.241000000     0.026000000
H    -5.400000000     2.610000000    -1.584000000
C    -3.455000000     3.148000000    -0.960000000
C    -2.799000000     2.913000000    -2.172000000
C    -1.496000000     3.574000000    -2.379000000
H    -1.024000000     3.421000000    -3.346000000
C    -0.881000000     4.416000000    -1.486000000
O     0.428000000     4.803000000    -1.703000000
C     1.431000000     4.085000000    -1.108000000
H     0.955000000     3.171000000    -0.724000000
C     2.585000000     3.790000000    -2.034000000
C     3.857000000     3.603000000    -1.533000000
H     4.061000000     3.974000000    -0.532000000
C     2.340000000     3.265000000    -3.317000000
H     1.298000000     3.061000000    -3.554000000
C     3.372000000     2.872000000    -4.183000000
O     3.231000000     2.422000000    -5.455000000
C     4.618000000     2.780000000    -3.680000000
H     5.408000000     2.510000000    -4.376000000
C     4.844000000     3.147000000    -2.399000000
O     6.198000000     2.932000000    -2.067000000
C     6.474000000     2.500000000    -0.809000000
C     6.006000000     1.331000000    -0.266000000
H     5.201000000     0.795000000    -0.761000000
C     7.424000000     3.220000000    -0.110000000
H     7.793000000     4.137000000    -0.562000000
C     7.757000000     2.820000000     1.202000000
H     8.364000000     3.536000000     1.750000000
C     7.324000000     1.598000000     1.711000000
H     7.651000000     1.327000000     2.712000000
C     6.536000000     0.806000000     0.933000000
O     6.246000000    -0.428000000     1.471000000
C     5.176000000    -0.727000000     2.327000000
C     5.202000000    -1.857000000     3.074000000
H     6.045000000    -2.543000000     3.063000000
C     4.140000000    -2.312000000     3.819000000
O     4.190000000    -3.462000000     4.580000000
C     3.147000000    -4.381000000     4.663000000
C     2.448000000    -4.810000000     3.489000000
H     2.614000000    -4.249000000     2.573000000
C     2.871000000    -5.053000000     5.875000000
H     3.380000000    -4.625000000     6.735000000
C     1.828000000    -6.046000000     5.901000000
H     1.616000000    -6.506000000     6.862000000
C     1.146000000    -6.434000000     4.723000000
H     0.324000000    -7.144000000     4.757000000
C     1.485000000    -5.825000000     3.459000000
O     0.763000000    -6.220000000     2.392000000
C    -0.244000000    -5.487000000     1.832000000
C    -0.852000000    -6.077000000     0.719000000
H    -0.366000000    -6.959000000     0.309000000
C    -1.880000000    -5.457000000    -0.008000000
O    -2.240000000    -6.125000000    -1.173000000
C    -3.162000000    -5.735000000    -2.093000000
C    -2.828000000    -4.810000000    -3.056000000
H    -1.810000000    -4.429000000    -3.084000000
C    -4.478000000    -6.284000000    -1.988000000
H    -4.853000000    -6.899000000    -1.173000000
C    -5.395000000    -5.798000000    -2.921000000
H    -6.424000000    -6.147000000    -2.912000000
C    -5.088000000    -4.848000000    -3.878000000
H    -5.856000000    -4.528000000    -4.578000000
C    -3.803000000    -4.345000000    -3.974000000
O    -3.515000000    -3.575000000    -5.118000000
C    -2.918000000    -2.348000000    -5.049000000
C    -1.917000000    -2.039000000    -5.958000000
H    -1.608000000    -2.697000000    -6.766000000
C    -1.392000000    -0.740000000    -5.848000000
O    -0.428000000    -0.379000000    -6.745000000
C     0.258000000     0.848000000    -6.825000000
C    -0.228000000     1.819000000    -7.676000000
H    -1.086000000     1.740000000    -8.337000000
C     0.454000000     3.044000000    -7.729000000
H     0.198000000     3.805000000    -8.463000000
C     1.515000000     3.278000000    -6.941000000
H     1.973000000     4.257000000    -6.820000000
C     1.994000000     2.299000000    -6.064000000
C     1.389000000     1.095000000    -6.092000000
H     1.761000000     0.400000000    -5.342000000
C     2.354000000    -1.151000000    -0.312000000
H     3.436000000    -1.247000000    -0.285000000
C     1.857000000     0.103000000    -0.023000000
H     2.545000000     0.900000000     0.248000000
C     0.478000000     0.238000000     0.043000000
H    -0.035000000     1.120000000     0.392000000
C    -0.358000000    -0.810000000    -0.209000000
H    -1.429000000    -0.647000000    -0.127000000
C     0.223000000    -2.003000000    -0.659000000
H    -0.335000000    -2.840000000    -1.071000000
C     1.576000000    -2.212000000    -0.640000000
C     2.191000000    -3.517000000    -1.103000000
O     1.512000000    -4.440000000    -1.528000000
O     3.353000000    -3.664000000    -1.124000000
O     3.456000000    -6.434000000    -1.816000000
H     2.776000000    -5.806000000    -1.572000000
H     3.915000000    -6.018000000    -2.546000000
O     3.975000000   -10.131000000    -0.371000000
H     3.157000000    -9.723000000    -0.654000000
H     4.600000000    -9.923000000    -1.066000000
O     0.560000000    -5.710000000    -5.288000000
H     0.357000000    -5.930000000    -4.379000000
H    -0.008000000    -6.281000000    -5.805000000
O     5.594000000    -3.613000000     0.231000000
H     5.904000000    -2.708000000     0.266000000
H     4.718000000    -3.551000000    -0.149000000
O     4.863000000    -4.548000000    -3.275000000
H     4.673000000    -3.884000000    -3.937000000
H     4.481000000    -4.201000000    -2.470000000
O     3.446000000    -2.382000000    -4.498000000
H     2.506000000    -2.563000000    -4.512000000
H     3.505000000    -1.434000000    -4.379000000
O     6.128000000    -2.197000000    -6.077000000
H     5.771000000    -1.311000000    -6.011000000
H     5.359000000    -2.757000000    -6.183000000
O     7.239000000    -5.866000000    -2.687000000
H     7.636000000    -5.281000000    -3.332000000
H     6.352000000    -5.527000000    -2.571000000
O     0.946000000    -3.187000000    -4.273000000
H     0.693000000    -3.978000000    -4.748000000
H     1.122000000    -3.489000000    -3.382000000
O     4.260000000    -8.722000000     2.020000000
H     4.441000000    -9.112000000     1.165000000
H     4.364000000    -7.780000000     1.880000000
O     2.242000000    -4.458000000    -7.216000000
H     1.760000000    -4.752000000    -6.442000000
H     2.442000000    -3.539000000    -7.038000000
O    -0.639000000    -9.358000000    -0.922000000
H    -0.380000000    -9.090000000    -0.040000000
H    -1.251000000   -10.081000000    -0.783000000
O     6.079000000    -1.231000000    -2.326000000
H     5.760000000    -1.624000000    -3.139000000
H     6.995000000    -1.503000000    -2.271000000
O     2.012000000    -8.814000000    -2.025000000
H     2.348000000    -7.934000000    -2.195000000
H     1.087000000    -8.680000000    -1.814000000
O     0.107000000    -6.164000000    -2.701000000
H    -0.762000000    -5.994000000    -2.338000000
H     0.692000000    -5.601000000    -2.194000000
O     8.358000000    -4.526000000    -0.219000000
H     8.533000000    -4.727000000    -1.138000000
H     7.430000000    -4.292000000    -0.198000000
O    -0.797000000    -8.573000000    -3.580000000
H    -0.844000000    -8.989000000    -2.719000000
H    -0.264000000    -7.791000000    -3.439000000
O     5.187000000    -6.352000000     0.222000000
H     5.527000000    -5.483000000     0.009000000
H     4.542000000    -6.531000000    -0.461000000
O     6.247000000    -8.597000000    -1.693000000
H     6.004000000    -7.675000000    -1.784000000
H     7.196000000    -8.583000000    -1.569000000
