215
-1466.66394
C     2.688000000    -1.310000000     4.045000000
H     1.815000000    -1.593000000     4.627000000
C     2.750000000    -0.014000000     3.514000000
C     3.744000000     0.301000000     2.563000000
H     3.758000000     1.260000000     2.051000000
C     1.613000000     0.966000000     3.632000000
O     0.702000000     0.582000000     4.781000000
H     1.032000000     1.015000000     2.699000000
O     2.085000000     2.389000000     3.835000000
C     1.366000000     3.247000000     3.049000000
C     1.865000000     3.800000000     1.869000000
H     2.884000000     3.498000000     1.643000000
C     1.144000000     4.556000000     0.978000000
O     1.658000000     4.942000000    -0.229000000
C    -0.196000000     4.865000000     1.209000000
C    -1.052000000     5.593000000     0.169000000
H    -1.887000000     6.146000000     0.606000000
C    -1.570000000     4.576000000    -0.820000000
C    -2.896000000     4.131000000    -0.660000000
H    -3.582000000     4.544000000     0.075000000
H    -0.535000000     6.398000000    -0.358000000
C    -0.757000000     4.290000000     2.362000000
H    -1.790000000     4.570000000     2.550000000
C    -0.002000000     3.526000000     3.273000000
C    -0.723000000     3.002000000     4.521000000
H    -1.497000000     3.741000000     4.740000000
H     0.009000000     2.958000000     5.330000000
C    -1.454000000     1.632000000     4.376000000
C    -2.774000000     1.501000000     4.074000000
H    -3.438000000     2.350000000     3.931000000
C    -0.680000000     0.436000000     4.516000000
C    -1.170000000    -0.829000000     4.337000000
H    -0.456000000    -1.619000000     4.555000000
C    -2.510000000    -0.958000000     3.976000000
O    -3.021000000    -2.179000000     3.572000000
C    -2.881000000    -2.480000000     2.182000000
C    -2.320000000    -3.891000000     1.949000000
C    -2.505000000    -4.527000000     0.698000000
H    -3.085000000    -4.014000000    -0.064000000
C    -1.661000000    -4.453000000     3.002000000
H    -1.424000000    -3.942000000     3.932000000
O    -4.209000000    -2.448000000     1.628000000
H    -2.225000000    -1.720000000     1.733000000
C    -3.299000000     0.204000000     3.832000000
C    -4.684000000     0.031000000     3.243000000
H    -5.349000000     0.837000000     3.561000000
H    -5.167000000    -0.814000000     3.739000000
C    -4.695000000    -0.025000000     1.704000000
C    -4.764000000     1.157000000     0.969000000
H    -4.861000000     2.154000000     1.393000000
C    -4.541000000    -1.270000000     0.971000000
C    -4.490000000    -1.229000000    -0.441000000
H    -4.383000000    -2.153000000    -1.004000000
C    -4.537000000    -0.043000000    -1.124000000
O    -4.250000000    -0.159000000    -2.541000000
C    -2.896000000     0.339000000    -2.963000000
C    -2.336000000    -0.508000000    -4.069000000
C    -2.615000000    -1.895000000    -4.041000000
H    -3.301000000    -2.296000000    -3.299000000
C    -1.350000000     0.034000000    -4.975000000
H    -0.957000000     1.044000000    -4.893000000
O    -3.046000000     1.717000000    -3.380000000
H    -2.204000000     0.316000000    -2.108000000
C    -4.750000000     1.159000000    -0.481000000
C    -4.784000000     2.561000000    -1.145000000
H    -5.448000000     3.223000000    -0.586000000
H    -5.270000000     2.550000000    -2.123000000
C    -3.453000000     3.185000000    -1.465000000
C    -2.645000000     2.752000000    -2.569000000
C    -1.365000000     3.262000000    -2.788000000
H    -0.838000000     2.883000000    -3.660000000
C    -0.855000000     4.236000000    -1.985000000
O     0.442000000     4.634000000    -2.183000000
C     1.446000000     4.065000000    -1.383000000
H     1.168000000     3.044000000    -1.082000000
C     2.747000000     3.878000000    -2.172000000
C     3.895000000     3.595000000    -1.476000000
H     3.822000000     3.673000000    -0.395000000
C     2.701000000     3.576000000    -3.501000000
H     1.756000000     3.828000000    -3.977000000
C     3.851000000     3.187000000    -4.203000000
O     3.707000000     2.928000000    -5.631000000
C     5.064000000     3.040000000    -3.492000000
H     5.983000000     2.858000000    -4.043000000
C     5.097000000     3.328000000    -2.151000000
O     6.357000000     3.357000000    -1.606000000
C     6.696000000     2.639000000    -0.476000000
C     6.119000000     1.377000000    -0.195000000
H     5.408000000     0.995000000    -0.923000000
C     7.600000000     3.124000000     0.430000000
H     8.108000000     4.034000000     0.123000000
C     7.895000000     2.433000000     1.607000000
H     8.718000000     2.726000000     2.253000000
C     7.247000000     1.222000000     1.888000000
H     7.564000000     0.587000000     2.711000000
C     6.338000000     0.768000000     0.990000000
O     5.663000000    -0.373000000     1.228000000
C     4.784000000    -0.579000000     2.275000000
C     4.718000000    -1.857000000     2.860000000
H     5.507000000    -2.555000000     2.595000000
C     3.642000000    -2.270000000     3.739000000
O     3.689000000    -3.627000000     4.147000000
C     2.579000000    -4.183000000     4.661000000
C     1.624000000    -4.935000000     3.984000000
H     1.895000000    -5.099000000     2.945000000
C     2.452000000    -4.110000000     6.061000000
H     3.172000000    -3.447000000     6.534000000
C     1.341000000    -4.739000000     6.684000000
H     1.068000000    -4.527000000     7.715000000
C     0.509000000    -5.615000000     6.028000000
H    -0.313000000    -6.214000000     6.411000000
C     0.562000000    -5.568000000     4.610000000
O    -0.354000000    -6.316000000     3.818000000
C    -1.126000000    -5.725000000     2.854000000
C    -1.345000000    -6.453000000     1.690000000
H    -0.973000000    -7.474000000     1.662000000
C    -1.996000000    -5.859000000     0.631000000
O    -1.937000000    -6.487000000    -0.666000000
C    -2.567000000    -6.042000000    -1.804000000
C    -1.905000000    -5.296000000    -2.733000000
H    -0.853000000    -5.094000000    -2.545000000
C    -3.942000000    -6.434000000    -1.933000000
H    -4.493000000    -6.970000000    -1.164000000
C    -4.619000000    -6.038000000    -3.055000000
H    -5.653000000    -6.313000000    -3.245000000
C    -4.001000000    -5.348000000    -4.032000000
H    -4.493000000    -5.064000000    -4.959000000
C    -2.626000000    -4.955000000    -3.889000000
O    -2.071000000    -4.168000000    -4.876000000
C    -1.908000000    -2.767000000    -4.946000000
C    -1.021000000    -2.203000000    -5.808000000
H    -0.344000000    -2.819000000    -6.394000000
C    -0.677000000    -0.876000000    -5.781000000
O     0.507000000    -0.485000000    -6.330000000
C     0.894000000     0.760000000    -6.491000000
C     0.131000000     1.616000000    -7.230000000
H    -0.752000000     1.217000000    -7.722000000
C     0.553000000     2.890000000    -7.450000000
H     0.025000000     3.630000000    -8.047000000
C     1.806000000     3.319000000    -6.975000000
H     2.121000000     4.339000000    -7.180000000
C     2.483000000     2.505000000    -6.071000000
C     2.084000000     1.156000000    -5.860000000
H     2.771000000     0.508000000    -5.323000000
C     1.774000000    -0.456000000    -0.038000000
H     2.801000000    -0.619000000    -0.354000000
C     1.368000000     0.789000000     0.392000000
H     2.085000000     1.567000000     0.640000000
C     0.004000000     1.053000000     0.538000000
H    -0.343000000     1.986000000     0.816000000
C    -0.831000000     0.004000000     0.285000000
H    -1.902000000     0.185000000     0.321000000
C    -0.405000000    -1.230000000    -0.157000000
H    -1.112000000    -1.994000000    -0.472000000
C     0.912000000    -1.482000000    -0.420000000
C     1.374000000    -2.667000000    -1.088000000
O     0.584000000    -3.412000000    -1.642000000
O     2.565000000    -2.915000000    -1.134000000
O     4.453000000    -4.130000000     0.511000000
H     5.094000000    -3.484000000     0.214000000
H     3.620000000    -3.823000000     0.151000000
O     5.286000000    -3.674000000    -5.539000000
H     5.850000000    -3.127000000    -4.992000000
H     4.405000000    -3.329000000    -5.396000000
O     3.603000000    -9.031000000    -1.038000000
H     2.860000000    -8.930000000    -0.444000000
H     4.221000000    -8.353000000    -0.766000000
O     0.404000000    -5.431000000    -6.589000000
H     0.509000000    -5.050000000    -5.717000000
H     1.261000000    -5.804000000    -6.793000000
O    -1.018000000    -7.661000000    -5.828000000
H    -0.548000000    -7.637000000    -4.994000000
H    -0.845000000    -6.807000000    -6.224000000
O     1.183000000    -4.585000000    -4.102000000
H     0.801000000    -3.904000000    -3.549000000
H     1.845000000    -5.000000000    -3.548000000
O     6.439000000    -2.907000000    -1.316000000
H     5.838000000    -2.331000000    -1.789000000
H     7.305000000    -2.678000000    -1.655000000
O     2.438000000    -7.328000000    -5.512000000
H     3.235000000    -7.483000000    -6.018000000
H     2.644000000    -7.652000000    -4.635000000
O     3.641000000    -4.828000000    -2.539000000
H     3.441000000    -4.080000000    -1.976000000
H     4.166000000    -5.408000000    -1.988000000
O     4.773000000    -0.948000000    -7.657000000
H     4.149000000    -1.435000000    -7.119000000
H     4.240000000    -0.294000000    -8.109000000
O     4.649000000    -1.498000000    -2.833000000
H     4.334000000    -1.760000000    -3.698000000
H     3.951000000    -1.763000000    -2.234000000
O     2.885000000    -2.231000000    -5.204000000
H     2.386000000    -2.955000000    -4.825000000
H     2.410000000    -2.006000000    -6.004000000
O     5.147000000    -5.911000000     2.601000000
H     6.043000000    -5.638000000     2.798000000
H     4.866000000    -5.321000000     1.901000000
O     4.918000000    -6.483000000    -0.836000000
H     4.894000000    -5.753000000    -0.218000000
H     5.766000000    -6.899000000    -0.684000000
O     1.679000000    -7.797000000     1.001000000
H     1.475000000    -7.113000000     0.363000000
H     2.352000000    -7.409000000     1.560000000
O     0.908000000    -5.968000000    -1.035000000
H     1.774000000    -5.815000000    -1.412000000
H     0.568000000    -5.092000000    -0.852000000
O     0.434000000    -8.425000000    -3.101000000
H    -0.321000000    -8.833000000    -2.679000000
H     0.703000000    -7.734000000    -2.496000000
O     8.074000000    -2.258000000     1.057000000
H     8.494000000    -1.458000000     0.741000000
H     7.302000000    -2.359000000     0.501000000
O     5.209000000    -6.735000000    -4.603000000
H     5.881000000    -6.626000000    -5.276000000
H     4.850000000    -5.856000000    -4.478000000
