215
-1432.32245
C     2.674000000    -1.436000000     3.974000000
H     1.706000000    -1.803000000     4.304000000
C     2.802000000    -0.177000000     3.557000000
C     3.998000000     0.305000000     2.951000000
H     3.976000000     1.307000000     2.530000000
C     1.627000000     0.738000000     3.576000000
O     0.721000000     0.438000000     4.680000000
H     0.999000000     0.574000000     2.688000000
O     2.051000000     2.131000000     3.772000000
C     1.330000000     3.130000000     3.152000000
C     1.945000000     3.616000000     1.998000000
H     2.953000000     3.310000000     1.729000000
C     1.266000000     4.581000000     1.260000000
O     1.755000000     4.969000000     0.030000000
C    -0.092000000     4.922000000     1.553000000
C    -0.895000000     5.615000000     0.502000000
H    -1.769000000     5.920000000     1.081000000
C    -1.426000000     4.717000000    -0.549000000
C    -2.793000000     4.240000000    -0.501000000
H    -3.455000000     4.707000000     0.224000000
H    -0.373000000     6.460000000     0.046000000
C    -0.690000000     4.415000000     2.698000000
H    -1.741000000     4.616000000     2.889000000
C     0.014000000     3.572000000     3.462000000
C    -0.767000000     2.911000000     4.616000000
H    -1.617000000     3.503000000     4.962000000
H    -0.032000000     2.832000000     5.419000000
C    -1.325000000     1.522000000     4.292000000
C    -2.658000000     1.513000000     3.891000000
H    -3.272000000     2.410000000     3.914000000
C    -0.566000000     0.376000000     4.386000000
C    -1.216000000    -0.849000000     4.267000000
H    -0.550000000    -1.691000000     4.434000000
C    -2.495000000    -0.893000000     3.683000000
O    -3.034000000    -2.130000000     3.349000000
C    -2.977000000    -2.443000000     1.886000000
C    -2.371000000    -3.838000000     1.594000000
C    -2.441000000    -4.364000000     0.275000000
H    -3.012000000    -3.787000000    -0.448000000
C    -1.559000000    -4.591000000     2.479000000
H    -1.264000000    -4.115000000     3.410000000
O    -4.213000000    -2.276000000     1.263000000
H    -2.207000000    -1.812000000     1.417000000
C    -3.243000000     0.253000000     3.560000000
C    -4.653000000     0.194000000     2.932000000
H    -5.166000000     1.087000000     3.293000000
H    -5.175000000    -0.701000000     3.278000000
C    -4.552000000     0.168000000     1.452000000
C    -4.692000000     1.344000000     0.792000000
H    -4.830000000     2.271000000     1.343000000
C    -4.518000000    -1.025000000     0.678000000
C    -4.548000000    -0.948000000    -0.652000000
H    -4.402000000    -1.832000000    -1.268000000
C    -4.596000000     0.270000000    -1.342000000
O    -4.450000000     0.369000000    -2.748000000
C    -3.067000000     0.674000000    -3.198000000
C    -2.626000000    -0.215000000    -4.369000000
C    -3.168000000    -1.527000000    -4.500000000
H    -4.041000000    -1.827000000    -3.926000000
C    -1.655000000     0.165000000    -5.259000000
H    -1.193000000     1.147000000    -5.198000000
O    -3.023000000     2.109000000    -3.503000000
H    -2.321000000     0.512000000    -2.406000000
C    -4.768000000     1.406000000    -0.595000000
C    -4.795000000     2.798000000    -1.233000000
H    -5.361000000     3.416000000    -0.533000000
H    -5.205000000     2.882000000    -2.242000000
C    -3.350000000     3.316000000    -1.381000000
C    -2.600000000     2.997000000    -2.562000000
C    -1.326000000     3.411000000    -2.664000000
H    -0.734000000     3.056000000    -3.504000000
C    -0.775000000     4.297000000    -1.707000000
O     0.571000000     4.656000000    -1.937000000
C     1.548000000     4.074000000    -1.084000000
H     1.098000000     3.151000000    -0.689000000
C     2.876000000     3.603000000    -1.703000000
C     4.190000000     3.763000000    -1.203000000
H     4.250000000     4.313000000    -0.268000000
C     2.748000000     2.670000000    -2.716000000
H     1.764000000     2.373000000    -3.069000000
C     3.867000000     2.105000000    -3.347000000
O     3.614000000     1.135000000    -4.309000000
C     5.131000000     2.327000000    -2.868000000
H     5.925000000     1.699000000    -3.263000000
C     5.334000000     3.205000000    -1.832000000
O     6.539000000     3.118000000    -1.218000000
C     6.850000000     2.499000000    -0.042000000
C     6.301000000     1.291000000     0.387000000
H     5.822000000     0.672000000    -0.368000000
C     7.674000000     3.301000000     0.787000000
H     7.831000000     4.328000000     0.467000000
C     7.957000000     2.839000000     2.055000000
H     8.524000000     3.490000000     2.716000000
C     7.464000000     1.621000000     2.550000000
H     7.706000000     1.236000000     3.537000000
C     6.637000000     0.834000000     1.691000000
O     6.223000000    -0.362000000     2.122000000
C     5.039000000    -0.586000000     2.758000000
C     4.839000000    -1.912000000     3.190000000
H     5.668000000    -2.607000000     3.091000000
C     3.680000000    -2.315000000     3.853000000
O     3.539000000    -3.506000000     4.484000000
C     2.369000000    -4.335000000     4.620000000
C     1.643000000    -4.886000000     3.583000000
H     1.749000000    -4.440000000     2.597000000
C     2.260000000    -4.890000000     5.935000000
H     2.910000000    -4.474000000     6.700000000
C     1.300000000    -5.850000000     6.215000000
H     1.161000000    -6.297000000     7.196000000
C     0.596000000    -6.414000000     5.150000000
H     0.009000000    -7.324000000     5.244000000
C     0.776000000    -5.884000000     3.900000000
O    -0.012000000    -6.412000000     2.909000000
C    -0.854000000    -5.724000000     2.072000000
C    -0.980000000    -6.217000000     0.723000000
H    -0.459000000    -7.134000000     0.462000000
C    -1.846000000    -5.511000000    -0.159000000
O    -1.813000000    -5.885000000    -1.533000000
C    -2.837000000    -5.509000000    -2.387000000
C    -2.533000000    -4.709000000    -3.536000000
H    -1.528000000    -4.420000000    -3.833000000
C    -4.136000000    -5.860000000    -2.030000000
H    -4.317000000    -6.536000000    -1.198000000
C    -5.153000000    -5.451000000    -2.868000000
H    -6.207000000    -5.674000000    -2.729000000
C    -4.937000000    -4.852000000    -4.050000000
H    -5.669000000    -4.785000000    -4.851000000
C    -3.659000000    -4.369000000    -4.351000000
O    -3.417000000    -3.657000000    -5.540000000
C    -2.733000000    -2.441000000    -5.469000000
C    -1.657000000    -2.072000000    -6.267000000
H    -1.320000000    -2.618000000    -7.145000000
C    -1.048000000    -0.800000000    -6.144000000
O    -0.111000000    -0.317000000    -6.994000000
C     0.871000000     0.726000000    -6.736000000
C     0.692000000     2.057000000    -7.126000000
H    -0.233000000     2.296000000    -7.644000000
C     1.637000000     2.998000000    -6.746000000
H     1.548000000     4.051000000    -7.000000000
C     2.657000000     2.708000000    -5.873000000
H     3.353000000     3.478000000    -5.551000000
C     2.746000000     1.380000000    -5.349000000
C     1.832000000     0.394000000    -5.766000000
H     1.932000000    -0.621000000    -5.391000000
C     1.599000000    -2.318000000     0.167000000
H     1.989000000    -2.667000000     1.120000000
C     1.039000000    -1.038000000     0.067000000
H     1.123000000    -0.273000000     0.835000000
C     0.380000000    -0.670000000    -1.089000000
H     0.005000000     0.398000000    -1.151000000
C     0.265000000    -1.559000000    -2.147000000
H    -0.212000000    -1.225000000    -3.064000000
C     0.705000000    -2.834000000    -2.080000000
H     0.439000000    -3.568000000    -2.837000000
C     1.354000000    -3.213000000    -0.905000000
C     1.803000000    -4.652000000    -0.788000000
O     1.715000000    -5.504000000    -1.645000000
O     2.569000000    -4.885000000     0.139000000
O     6.525000000    -5.481000000     3.293000000
H     5.753000000    -5.634000000     2.748000000
H     6.191000000    -5.497000000     4.190000000
O     2.823000000    -7.310000000     1.405000000
H     2.470000000    -6.540000000     0.960000000
H     3.085000000    -7.897000000     0.696000000
O     5.714000000    -8.324000000     0.789000000
H     4.836000000    -8.151000000     0.449000000
H     5.628000000    -9.152000000     1.262000000
O     1.033000000    -5.857000000    -7.066000000
H     1.380000000    -5.728000000    -6.183000000
H     0.089000000    -5.730000000    -6.973000000
O     5.077000000    -4.085000000    -0.106000000
H     4.961000000    -3.168000000     0.143000000
H     4.214000000    -4.479000000     0.020000000
O     4.597000000    -6.369000000    -2.051000000
H     3.710000000    -6.572000000    -1.754000000
H     4.717000000    -5.445000000    -1.833000000
O     4.007000000    -3.132000000    -4.971000000
H     4.337000000    -2.756000000    -4.155000000
H     4.743000000    -3.067000000    -5.579000000
O     3.426000000    -9.388000000    -0.115000000
H     2.540000000    -9.749000000    -0.088000000
H     3.890000000    -9.939000000    -0.745000000
O     7.158000000    -5.770000000    -0.228000000
H     6.713000000    -6.617000000    -0.247000000
H     6.457000000    -5.135000000    -0.077000000
O     5.025000000    -1.452000000    -2.950000000
H     4.729000000    -1.231000000    -2.067000000
H     4.840000000    -0.669000000    -3.467000000
O     0.280000000   -10.550000000    -0.299000000
H     0.448000000    -9.668000000    -0.633000000
H     0.253000000   -10.445000000     0.652000000
O     2.047000000    -3.088000000    -6.935000000
H     1.490000000    -3.856000000    -7.061000000
H     2.694000000    -3.365000000    -6.285000000
O     0.923000000    -9.245000000     2.189000000
H     1.346000000    -9.440000000     3.026000000
H     1.324000000    -8.424000000     1.904000000
O    -1.151000000    -7.858000000    -3.671000000
H    -0.415000000    -8.391000000    -3.371000000
H    -1.180000000    -7.123000000    -3.058000000
O     3.203000000    -8.467000000    -3.313000000
H     3.253000000    -8.807000000    -4.207000000
H     3.584000000    -7.591000000    -3.369000000
O     1.986000000    -5.321000000    -4.541000000
H     2.385000000    -4.452000000    -4.493000000
H     1.773000000    -5.536000000    -3.633000000
O     1.030000000    -7.938000000    -1.477000000
H     1.208000000    -7.000000000    -1.411000000
H     1.642000000    -8.253000000    -2.142000000
O     3.841000000    -7.876000000     3.985000000
H     3.087000000    -8.439000000     4.159000000
H     3.682000000    -7.527000000     3.108000000
O     6.628000000    -8.203000000    -2.737000000
H     6.088000000    -7.602000000    -2.223000000
H     6.705000000    -7.783000000    -3.594000000
