215
-1463.11139
C     5.155000000    -0.937000000    -2.157000000
H     4.842000000    -1.967000000    -2.307000000
C     5.060000000    -0.371000000    -0.894000000
C     5.447000000     0.946000000    -0.779000000
H     5.216000000     1.514000000     0.119000000
C     4.345000000    -1.118000000     0.294000000
O     4.408000000    -2.553000000     0.336000000
H     3.292000000    -0.801000000     0.260000000
O     4.799000000    -0.560000000     1.535000000
C     3.849000000    -0.225000000     2.479000000
C     3.363000000     1.083000000     2.661000000
H     3.788000000     1.873000000     2.046000000
C     2.342000000     1.396000000     3.592000000
O     1.912000000     2.717000000     3.651000000
C     1.851000000     0.438000000     4.403000000
C     0.729000000     0.586000000     5.469000000
H     0.905000000    -0.192000000     6.215000000
C    -0.642000000     0.674000000     4.879000000
C    -1.480000000    -0.465000000     4.906000000
H    -1.218000000    -1.296000000     5.557000000
H     0.963000000     1.527000000     5.972000000
C     2.365000000    -0.866000000     4.272000000
H     2.021000000    -1.622000000     4.974000000
C     3.392000000    -1.179000000     3.405000000
C     3.787000000    -2.676000000     3.294000000
H     3.769000000    -3.108000000     4.297000000
H     4.831000000    -2.724000000     2.976000000
C     2.919000000    -3.386000000     2.224000000
C     1.734000000    -4.017000000     2.514000000
H     1.359000000    -4.069000000     3.533000000
C     3.360000000    -3.328000000     0.869000000
C     2.564000000    -3.832000000    -0.153000000
H     2.833000000    -3.711000000    -1.199000000
C     1.308000000    -4.375000000     0.134000000
O     0.593000000    -4.839000000    -0.957000000
C    -0.537000000    -3.974000000    -1.167000000
C    -0.716000000    -3.618000000    -2.600000000
C    -1.992000000    -3.715000000    -3.257000000
H    -2.791000000    -3.936000000    -2.554000000
C     0.376000000    -3.219000000    -3.319000000
H     1.376000000    -3.121000000    -2.905000000
O    -1.748000000    -4.656000000    -0.706000000
H    -0.371000000    -3.015000000    -0.655000000
C     0.941000000    -4.582000000     1.437000000
C    -0.328000000    -5.337000000     1.797000000
H    -0.318000000    -5.596000000     2.858000000
H    -0.472000000    -6.248000000     1.212000000
C    -1.554000000    -4.465000000     1.744000000
C    -1.981000000    -3.771000000     2.849000000
H    -1.395000000    -3.977000000     3.741000000
C    -2.153000000    -4.168000000     0.512000000
C    -3.176000000    -3.270000000     0.510000000
H    -3.668000000    -3.002000000    -0.422000000
C    -3.524000000    -2.465000000     1.561000000
O    -4.418000000    -1.449000000     1.303000000
C    -3.929000000    -0.119000000     1.243000000
C    -4.698000000     0.550000000     0.114000000
C    -5.203000000    -0.108000000    -1.016000000
H    -5.164000000    -1.194000000    -0.984000000
C    -4.724000000     1.966000000     0.064000000
H    -4.169000000     2.501000000     0.830000000
O    -4.115000000     0.640000000     2.459000000
H    -2.853000000    -0.050000000     1.029000000
C    -2.965000000    -2.720000000     2.813000000
C    -3.336000000    -1.864000000     4.025000000
H    -2.972000000    -2.428000000     4.886000000
H    -4.419000000    -1.722000000     4.034000000
C    -2.632000000    -0.482000000     4.136000000
C    -3.021000000     0.596000000     3.351000000
C    -2.268000000     1.757000000     3.447000000
H    -2.621000000     2.617000000     2.884000000
C    -1.105000000     1.791000000     4.154000000
O    -0.340000000     2.929000000     4.002000000
C     0.630000000     2.959000000     3.031000000
H     0.437000000     2.187000000     2.272000000
C     0.597000000     4.245000000     2.170000000
C     1.720000000     4.531000000     1.386000000
H     2.632000000     3.950000000     1.500000000
C    -0.553000000     5.000000000     1.989000000
H    -1.483000000     4.789000000     2.512000000
C    -0.578000000     6.034000000     1.056000000
O    -1.683000000     6.772000000     0.819000000
C     0.519000000     6.302000000     0.314000000
H     0.618000000     7.080000000    -0.439000000
C     1.667000000     5.505000000     0.420000000
O     2.696000000     5.781000000    -0.428000000
C     3.941000000     5.244000000    -0.265000000
C     4.520000000     4.268000000    -1.072000000
H     3.899000000     3.729000000    -1.783000000
C     4.695000000     5.800000000     0.744000000
H     4.118000000     6.397000000     1.445000000
C     6.067000000     5.568000000     0.857000000
H     6.617000000     5.985000000     1.696000000
C     6.621000000     4.675000000    -0.066000000
H     7.615000000     4.287000000     0.143000000
C     5.851000000     3.996000000    -0.998000000
O     6.393000000     2.972000000    -1.683000000
C     6.007000000     1.662000000    -1.844000000
C     6.176000000     0.991000000    -3.044000000
H     6.628000000     1.549000000    -3.861000000
C     5.688000000    -0.322000000    -3.242000000
O     5.717000000    -0.938000000    -4.453000000
C     4.842000000    -1.933000000    -4.833000000
C     3.456000000    -1.621000000    -4.851000000
H     3.078000000    -0.620000000    -4.663000000
C     5.279000000    -3.259000000    -5.072000000
H     6.332000000    -3.518000000    -5.003000000
C     4.329000000    -4.210000000    -5.373000000
H     4.712000000    -5.191000000    -5.645000000
C     2.926000000    -3.940000000    -5.345000000
H     2.173000000    -4.694000000    -5.557000000
C     2.524000000    -2.610000000    -5.176000000
O     1.197000000    -2.218000000    -5.262000000
C     0.157000000    -2.874000000    -4.648000000
C    -1.083000000    -2.990000000    -5.274000000
H    -1.244000000    -2.624000000    -6.285000000
C    -2.212000000    -3.329000000    -4.560000000
O    -3.478000000    -3.248000000    -5.078000000
C    -4.592000000    -2.944000000    -4.385000000
C    -4.902000000    -1.625000000    -4.248000000
H    -4.257000000    -0.875000000    -4.700000000
C    -5.338000000    -4.019000000    -3.944000000
H    -4.973000000    -5.028000000    -4.118000000
C    -6.511000000    -3.740000000    -3.200000000
H    -7.224000000    -4.515000000    -2.933000000
C    -6.786000000    -2.426000000    -2.893000000
H    -7.693000000    -2.162000000    -2.356000000
C    -6.030000000    -1.335000000    -3.460000000
O    -6.358000000    -0.017000000    -3.153000000
C    -5.778000000     0.593000000    -2.125000000
C    -5.804000000     2.019000000    -2.114000000
H    -6.222000000     2.551000000    -2.966000000
C    -5.311000000     2.662000000    -0.981000000
O    -5.206000000     4.031000000    -1.091000000
C    -4.779000000     4.882000000    -0.132000000
C    -5.556000000     5.325000000     0.903000000
H    -6.574000000     4.956000000     1.000000000
C    -5.167000000     6.242000000     1.895000000
H    -5.862000000     6.577000000     2.660000000
C    -3.840000000     6.696000000     1.791000000
H    -3.592000000     7.448000000     2.535000000
C    -3.000000000     6.267000000     0.814000000
C    -3.456000000     5.396000000    -0.152000000
H    -2.783000000     5.261000000    -0.995000000
C    -0.473000000     0.263000000    -2.494000000
H    -1.027000000     0.062000000    -3.408000000
C    -0.894000000    -0.424000000    -1.334000000
H    -1.760000000    -1.080000000    -1.324000000
C    -0.031000000    -0.226000000    -0.224000000
H    -0.260000000    -0.765000000     0.689000000
C     1.086000000     0.521000000    -0.225000000
H     1.518000000     0.721000000     0.752000000
C     1.434000000     1.230000000    -1.378000000
H     2.304000000     1.871000000    -1.265000000
C     0.630000000     1.095000000    -2.537000000
C     1.093000000     1.688000000    -3.833000000
O     2.037000000     2.451000000    -3.752000000
O     0.444000000     1.607000000    -4.872000000
O     0.386000000     4.334000000    -2.482000000
H     0.099000000     3.953000000    -1.653000000
H     1.037000000     3.717000000    -2.817000000
O     3.949000000     2.004000000    -6.265000000
H     4.002000000     2.745000000    -6.868000000
H     3.604000000     2.379000000    -5.454000000
O    -2.567000000    -0.124000000    -6.936000000
H    -1.827000000    -0.699000000    -7.134000000
H    -3.127000000    -0.180000000    -7.710000000
O     1.263000000    -3.208000000    -8.202000000
H     1.759000000    -3.148000000    -7.385000000
H     1.926000000    -3.360000000    -8.875000000
O    -1.266000000     3.049000000    -0.611000000
H    -1.229000000     3.212000000     0.332000000
H    -1.670000000     2.185000000    -0.689000000
O    -4.116000000     3.827000000    -4.526000000
H    -3.397000000     4.458000000    -4.506000000
H    -3.692000000     2.977000000    -4.407000000
O     1.849000000     0.645000000    -7.018000000
H     2.712000000     1.058000000    -6.970000000
H     1.449000000     0.830000000    -6.168000000
O     3.346000000     6.418000000    -7.978000000
H     3.613000000     5.588000000    -7.581000000
H     4.146000000     6.943000000    -7.995000000
O     3.429000000     4.654000000    -4.526000000
H     2.659000000     5.193000000    -4.711000000
H     3.076000000     3.864000000    -4.118000000
O     1.048000000     5.008000000    -8.402000000
H     1.112000000     4.688000000    -7.502000000
H     1.724000000     5.683000000    -8.464000000
O     5.190000000    -0.420000000    -7.605000000
H     4.617000000     0.022000000    -6.978000000
H     6.049000000    -0.423000000    -7.184000000
O     0.449000000     4.347000000    -5.551000000
H     0.496000000     3.560000000    -5.009000000
H     0.313000000     5.060000000    -4.926000000
O    -2.207000000     6.659000000    -6.782000000
H    -2.050000000     5.715000000    -6.765000000
H    -3.145000000     6.748000000    -6.611000000
O    -2.325000000     1.733000000    -5.068000000
H    -2.531000000     1.033000000    -5.687000000
H    -1.384000000     1.648000000    -4.915000000
O     6.232000000     4.923000000    -4.693000000
H     5.286000000     4.790000000    -4.641000000
H     6.509000000     4.388000000    -5.438000000
O     3.650000000     3.627000000    -8.548000000
H     2.708000000     3.669000000    -8.716000000
H     4.030000000     3.356000000    -9.384000000
O     0.068000000     1.672000000    -8.710000000
H    -0.788000000     1.756000000    -8.290000000
H     0.636000000     1.314000000    -8.028000000
O    -1.721000000     5.343000000    -3.960000000
H    -1.082000000     4.872000000    -3.425000000
H    -1.907000000     6.141000000    -3.465000000
O    -1.860000000     4.140000000    -7.144000000
H    -1.007000000     4.218000000    -6.716000000
H    -2.322000000     3.472000000    -6.637000000
