215
-1457.77749
C     3.887000000    -0.539000000     3.308000000
H     3.017000000    -0.955000000     3.810000000
C     3.862000000     0.825000000     3.077000000
C     4.950000000     1.369000000     2.363000000
H     4.889000000     2.404000000     2.035000000
C     2.632000000     1.636000000     3.231000000
O     1.958000000     1.448000000     4.463000000
H     1.939000000     1.237000000     2.477000000
O     2.787000000     3.052000000     2.958000000
C     1.872000000     3.662000000     2.187000000
C     2.162000000     3.830000000     0.848000000
H     3.109000000     3.501000000     0.428000000
C     1.225000000     4.410000000    -0.005000000
O     1.571000000     4.452000000    -1.357000000
C    -0.053000000     4.771000000     0.466000000
C    -1.083000000     5.300000000    -0.456000000
H    -1.743000000     5.927000000     0.147000000
C    -1.839000000     4.219000000    -1.168000000
C    -3.032000000     3.762000000    -0.657000000
H    -3.387000000     4.183000000     0.280000000
H    -0.633000000     6.030000000    -1.133000000
C    -0.449000000     4.494000000     1.812000000
H    -1.458000000     4.804000000     2.074000000
C     0.540000000     3.983000000     2.656000000
C     0.149000000     3.778000000     4.096000000
H    -0.694000000     4.428000000     4.336000000
H     1.027000000     4.087000000     4.668000000
C    -0.285000000     2.367000000     4.276000000
C    -1.666000000     2.112000000     4.082000000
H    -2.326000000     2.965000000     3.945000000
C     0.599000000     1.239000000     4.427000000
C     0.062000000    -0.082000000     4.498000000
H     0.698000000    -0.959000000     4.587000000
C    -1.312000000    -0.245000000     4.361000000
O    -1.760000000    -1.570000000     4.384000000
C    -2.083000000    -2.146000000     3.123000000
C    -1.615000000    -3.544000000     3.011000000
C    -2.079000000    -4.322000000     2.006000000
H    -2.796000000    -3.925000000     1.292000000
C    -0.509000000    -3.894000000     3.768000000
H    -0.161000000    -3.205000000     4.534000000
O    -3.479000000    -1.996000000     2.813000000
H    -1.534000000    -1.620000000     2.328000000
C    -2.177000000     0.809000000     4.096000000
C    -3.692000000     0.609000000     3.950000000
H    -4.141000000     1.489000000     4.417000000
H    -4.087000000    -0.228000000     4.530000000
C    -4.098000000     0.313000000     2.576000000
C    -4.401000000     1.380000000     1.658000000
H    -4.405000000     2.393000000     2.053000000
C    -4.002000000    -0.955000000     2.045000000
C    -4.274000000    -1.254000000     0.739000000
H    -4.296000000    -2.272000000     0.357000000
C    -4.535000000    -0.234000000    -0.129000000
O    -4.626000000    -0.545000000    -1.487000000
C    -3.491000000    -0.182000000    -2.424000000
C    -3.282000000    -1.371000000    -3.312000000
C    -3.639000000    -2.654000000    -2.891000000
H    -4.075000000    -2.803000000    -1.906000000
C    -2.621000000    -1.243000000    -4.551000000
H    -2.327000000    -0.223000000    -4.785000000
O    -3.888000000     1.130000000    -3.085000000
H    -2.548000000    -0.081000000    -1.867000000
C    -4.729000000     1.085000000     0.294000000
C    -5.018000000     2.176000000    -0.718000000
H    -5.683000000     2.951000000    -0.329000000
H    -5.675000000     1.730000000    -1.468000000
C    -3.782000000     2.770000000    -1.340000000
C    -3.341000000     2.271000000    -2.526000000
C    -2.226000000     2.855000000    -3.102000000
H    -1.837000000     2.420000000    -4.019000000
C    -1.438000000     3.789000000    -2.405000000
O    -0.178000000     4.099000000    -2.853000000
C     0.920000000     3.476000000    -2.171000000
H     0.580000000     2.617000000    -1.574000000
C     1.882000000     2.782000000    -3.088000000
C     3.197000000     2.637000000    -2.756000000
H     3.520000000     2.987000000    -1.779000000
C     1.393000000     2.174000000    -4.296000000
H     0.349000000     2.306000000    -4.570000000
C     2.245000000     1.457000000    -5.126000000
O     1.988000000     0.849000000    -6.357000000
C     3.573000000     1.415000000    -4.802000000
H     4.241000000     0.871000000    -5.465000000
C     4.117000000     1.983000000    -3.621000000
O     5.485000000     1.792000000    -3.155000000
C     6.043000000     2.337000000    -2.022000000
C     6.117000000     1.543000000    -0.866000000
H     5.412000000     0.716000000    -0.824000000
C     6.846000000     3.526000000    -2.059000000
H     6.940000000     4.147000000    -2.946000000
C     7.519000000     3.971000000    -0.900000000
H     8.010000000     4.933000000    -0.779000000
C     7.568000000     3.111000000     0.170000000
H     7.889000000     3.519000000     1.125000000
C     6.876000000     1.956000000     0.169000000
O     7.058000000     1.229000000     1.325000000
C     6.070000000     0.587000000     2.057000000
C     6.151000000    -0.721000000     2.514000000
H     7.087000000    -1.266000000     2.424000000
C     5.013000000    -1.288000000     3.132000000
O     5.159000000    -2.566000000     3.598000000
C     4.183000000    -3.187000000     4.298000000
C     3.264000000    -4.024000000     3.708000000
H     3.330000000    -4.277000000     2.653000000
C     4.018000000    -2.732000000     5.582000000
H     4.758000000    -2.069000000     6.025000000
C     3.015000000    -3.218000000     6.392000000
H     2.804000000    -2.917000000     7.414000000
C     2.111000000    -4.141000000     5.868000000
H     1.345000000    -4.516000000     6.542000000
C     2.316000000    -4.652000000     4.576000000
O     1.345000000    -5.516000000     4.107000000
C     0.153000000    -5.133000000     3.504000000
C    -0.381000000    -5.970000000     2.517000000
H     0.141000000    -6.868000000     2.198000000
C    -1.410000000    -5.514000000     1.715000000
O    -1.720000000    -6.288000000     0.663000000
C    -2.894000000    -6.149000000    -0.067000000
C    -2.761000000    -5.819000000    -1.419000000
H    -1.802000000    -5.583000000    -1.874000000
C    -4.103000000    -6.122000000     0.487000000
H    -4.252000000    -6.319000000     1.546000000
C    -5.216000000    -5.803000000    -0.216000000
H    -6.168000000    -5.718000000     0.303000000
C    -5.101000000    -5.547000000    -1.542000000
H    -5.970000000    -5.265000000    -2.132000000
C    -3.845000000    -5.514000000    -2.170000000
O    -3.698000000    -5.077000000    -3.430000000
C    -3.473000000    -3.742000000    -3.806000000
C    -2.907000000    -3.590000000    -5.047000000
H    -2.837000000    -4.414000000    -5.752000000
C    -2.453000000    -2.323000000    -5.407000000
O    -1.919000000    -2.043000000    -6.711000000
C    -1.245000000    -0.860000000    -7.031000000
C    -1.911000000     0.111000000    -7.758000000
H    -2.940000000    -0.092000000    -8.043000000
C    -1.337000000     1.362000000    -7.919000000
H    -1.871000000     2.105000000    -8.504000000
C    -0.018000000     1.616000000    -7.537000000
H     0.494000000     2.566000000    -7.664000000
C     0.711000000     0.639000000    -6.824000000
C     0.043000000    -0.638000000    -6.591000000
H     0.563000000    -1.354000000    -5.959000000
C     2.697000000    -0.965000000    -0.204000000
H     3.774000000    -0.852000000    -0.102000000
C     1.870000000     0.134000000     0.066000000
H     2.366000000     1.050000000     0.375000000
C     0.483000000     0.078000000     0.065000000
H    -0.031000000     0.943000000     0.410000000
C    -0.114000000    -1.104000000    -0.310000000
H    -1.191000000    -1.156000000    -0.449000000
C     0.692000000    -2.228000000    -0.576000000
H     0.235000000    -3.141000000    -0.947000000
C     2.066000000    -2.182000000    -0.561000000
C     2.829000000    -3.472000000    -0.760000000
O     2.252000000    -4.395000000    -1.329000000
O     3.930000000    -3.609000000    -0.284000000
O     6.163000000    -4.156000000     0.905000000
H     6.019000000    -4.733000000     1.654000000
H     5.284000000    -3.963000000     0.578000000
O     2.902000000    -5.462000000    -6.772000000
H     3.388000000    -6.006000000    -7.392000000
H     3.423000000    -5.490000000    -5.970000000
O     2.211000000    -6.369000000    -3.008000000
H     3.121000000    -6.193000000    -3.247000000
H     1.978000000    -5.660000000    -2.410000000
O     2.328000000    -3.381000000    -3.806000000
H     1.544000000    -3.715000000    -4.243000000
H     2.345000000    -3.835000000    -2.964000000
O     5.893000000    -1.848000000    -2.763000000
H     4.987000000    -1.695000000    -3.029000000
H     6.407000000    -1.252000000    -3.308000000
O     2.487000000    -8.803000000    -3.935000000
H     2.985000000    -9.219000000    -3.232000000
H     2.302000000    -7.922000000    -3.609000000
O     4.745000000    -5.818000000    -4.765000000
H     5.613000000    -5.951000000    -5.148000000
H     4.913000000    -5.339000000    -3.954000000
O     5.432000000    -4.369000000    -2.485000000
H     5.864000000    -3.536000000    -2.673000000
H     4.855000000    -4.178000000    -1.745000000
O     4.364000000    -1.542000000    -5.040000000
H     4.034000000    -2.326000000    -4.600000000
H     4.301000000    -1.746000000    -5.973000000
O     0.427000000    -4.488000000    -5.968000000
H     1.181000000    -4.600000000    -6.547000000
H    -0.024000000    -3.715000000    -6.308000000
O     5.567000000    -6.410000000     2.665000000
H     6.459000000    -6.756000000     2.662000000
H     5.013000000    -7.175000000     2.505000000
O     8.101000000    -5.654000000    -2.506000000
H     8.073000000    -5.921000000    -1.587000000
H     7.290000000    -5.162000000    -2.637000000
O     0.265000000    -7.072000000    -4.886000000
H     0.343000000    -6.121000000    -4.963000000
H     0.805000000    -7.296000000    -4.129000000
O     4.216000000    -8.781000000    -1.536000000
H     4.173000000    -7.964000000    -1.039000000
H     5.144000000    -9.015000000    -1.533000000
O     3.861000000    -6.387000000    -0.460000000
H     3.167000000    -5.752000000    -0.640000000
H     4.536000000    -5.882000000    -0.007000000
O     3.004000000    -8.229000000     3.278000000
H     3.031000000    -8.146000000     4.231000000
H     3.066000000    -7.330000000     2.957000000
O     1.415000000    -8.462000000    -0.815000000
H     1.607000000    -7.894000000    -1.561000000
H     2.269000000    -8.632000000    -0.417000000
O     7.356000000    -1.919000000    -0.274000000
H     6.715000000    -2.591000000    -0.040000000
H     7.073000000    -1.607000000    -1.133000000
O     7.705000000    -6.279000000     0.015000000
H     8.555000000    -6.132000000     0.429000000
H     7.241000000    -5.448000000     0.118000000
