215
-1473.51903
C     3.101000000    -0.310000000     2.822000000
H     2.262000000    -0.370000000     3.510000000
C     3.498000000     0.926000000     2.271000000
C     4.590000000     0.891000000     1.390000000
H     4.985000000     1.810000000     0.965000000
C     2.411000000     2.064000000     2.399000000
O     2.043000000     2.225000000     3.744000000
H     1.542000000     1.872000000     1.753000000
O     2.993000000     3.253000000     1.972000000
C     2.253000000     4.014000000     1.133000000
C     2.597000000     3.954000000    -0.210000000
H     3.552000000     3.490000000    -0.441000000
C     1.691000000     4.317000000    -1.161000000
O     2.107000000     4.129000000    -2.481000000
C     0.513000000     4.999000000    -0.767000000
C    -0.575000000     5.390000000    -1.807000000
H    -1.237000000     6.153000000    -1.391000000
C    -1.411000000     4.191000000    -2.279000000
C    -2.616000000     3.926000000    -1.647000000
H    -2.913000000     4.558000000    -0.814000000
H    -0.122000000     5.954000000    -2.625000000
C     0.247000000     5.198000000     0.608000000
H    -0.641000000     5.723000000     0.949000000
C     1.058000000     4.644000000     1.562000000
C     0.706000000     4.775000000     3.036000000
H     0.155000000     5.708000000     3.174000000
H     1.558000000     4.875000000     3.710000000
C    -0.093000000     3.488000000     3.536000000
C    -1.480000000     3.508000000     3.529000000
H    -1.968000000     4.324000000     3.003000000
C     0.685000000     2.418000000     4.054000000
C    -0.039000000     1.283000000     4.430000000
H     0.534000000     0.442000000     4.811000000
C    -1.414000000     1.222000000     4.273000000
O    -1.950000000     0.059000000     4.664000000
C    -2.416000000    -0.910000000     3.716000000
C    -2.387000000    -2.392000000     4.032000000
C    -3.038000000    -3.364000000     3.288000000
H    -3.725000000    -3.081000000     2.495000000
C    -1.362000000    -2.739000000     4.831000000
H    -0.706000000    -2.010000000     5.302000000
O    -3.830000000    -0.611000000     3.453000000
H    -1.889000000    -0.664000000     2.783000000
C    -2.144000000     2.332000000     3.854000000
C    -3.614000000     2.276000000     3.683000000
H    -4.090000000     3.259000000     3.682000000
H    -4.032000000     1.807000000     4.577000000
C    -4.068000000     1.608000000     2.434000000
C    -4.305000000     2.360000000     1.322000000
H    -4.055000000     3.418000000     1.350000000
C    -4.109000000     0.164000000     2.362000000
C    -4.300000000    -0.465000000     1.139000000
H    -4.144000000    -1.533000000     1.013000000
C    -4.555000000     0.315000000     0.028000000
O    -4.500000000    -0.333000000    -1.187000000
C    -3.282000000    -0.330000000    -1.972000000
C    -3.025000000    -1.724000000    -2.539000000
C    -3.634000000    -2.884000000    -2.006000000
H    -4.335000000    -2.771000000    -1.182000000
C    -2.017000000    -1.860000000    -3.490000000
H    -1.468000000    -1.002000000    -3.868000000
O    -3.340000000     0.630000000    -3.057000000
H    -2.429000000    -0.153000000    -1.301000000
C    -4.572000000     1.722000000     0.111000000
C    -4.633000000     2.568000000    -1.187000000
H    -5.104000000     3.542000000    -1.043000000
H    -5.267000000     2.004000000    -1.874000000
C    -3.356000000     2.796000000    -1.996000000
C    -2.868000000     1.912000000    -2.917000000
C    -1.718000000     2.184000000    -3.650000000
H    -1.310000000     1.447000000    -4.337000000
C    -0.968000000     3.296000000    -3.316000000
O     0.242000000     3.552000000    -3.964000000
C     1.357000000     3.032000000    -3.191000000
H     0.940000000     2.472000000    -2.341000000
C     2.370000000     2.209000000    -3.942000000
C     3.711000000     2.247000000    -3.596000000
H     4.173000000     2.690000000    -2.717000000
C     1.942000000     1.328000000    -4.981000000
H     0.889000000     1.252000000    -5.242000000
C     2.854000000     0.541000000    -5.673000000
O     2.436000000    -0.204000000    -6.764000000
C     4.206000000     0.748000000    -5.465000000
H     4.920000000     0.211000000    -6.085000000
C     4.656000000     1.518000000    -4.394000000
O     5.976000000     1.616000000    -4.081000000
C     6.452000000     1.700000000    -2.714000000
C     6.149000000     0.651000000    -1.858000000
H     5.624000000    -0.265000000    -2.117000000
C     7.206000000     2.769000000    -2.310000000
H     7.588000000     3.467000000    -3.050000000
C     7.603000000     2.927000000    -0.991000000
H     8.228000000     3.764000000    -0.689000000
C     7.360000000     1.849000000    -0.134000000
H     7.772000000     1.739000000     0.866000000
C     6.619000000     0.742000000    -0.552000000
O     6.395000000    -0.315000000     0.354000000
C     5.311000000    -0.281000000     1.142000000
C     4.925000000    -1.448000000     1.818000000
H     5.525000000    -2.340000000     1.659000000
C     3.854000000    -1.496000000     2.620000000
O     3.495000000    -2.689000000     3.184000000
C     2.988000000    -2.878000000     4.467000000
C     1.737000000    -3.401000000     4.583000000
H     1.091000000    -3.392000000     3.709000000
C     3.759000000    -2.844000000     5.582000000
H     4.787000000    -2.491000000     5.584000000
C     3.308000000    -3.275000000     6.807000000
H     4.084000000    -3.331000000     7.566000000
C     2.135000000    -3.879000000     6.974000000
H     1.819000000    -4.249000000     7.946000000
C     1.298000000    -3.886000000     5.832000000
O     0.020000000    -4.368000000     6.024000000
C    -0.989000000    -4.012000000     5.117000000
C    -1.588000000    -5.042000000     4.371000000
H    -1.336000000    -6.095000000     4.470000000
C    -2.645000000    -4.685000000     3.498000000
O    -3.245000000    -5.739000000     2.829000000
C    -4.034000000    -5.640000000     1.693000000
C    -3.461000000    -5.489000000     0.411000000
H    -2.381000000    -5.488000000     0.293000000
C    -5.402000000    -5.697000000     1.851000000
H    -5.788000000    -5.928000000     2.841000000
C    -6.233000000    -5.447000000     0.804000000
H    -7.305000000    -5.560000000     0.944000000
C    -5.682000000    -5.276000000    -0.506000000
H    -6.265000000    -5.225000000    -1.422000000
C    -4.342000000    -5.389000000    -0.641000000
O    -3.878000000    -5.293000000    -1.944000000
C    -3.370000000    -4.171000000    -2.519000000
C    -2.472000000    -4.280000000    -3.573000000
H    -2.183000000    -5.208000000    -4.060000000
C    -1.794000000    -3.122000000    -3.988000000
O    -0.830000000    -3.307000000    -4.995000000
C    -0.414000000    -2.342000000    -5.927000000
C    -1.141000000    -2.281000000    -7.118000000
H    -1.974000000    -2.947000000    -7.328000000
C    -0.668000000    -1.438000000    -8.111000000
H    -1.290000000    -1.290000000    -8.991000000
C     0.557000000    -0.722000000    -7.939000000
H     0.831000000    -0.099000000    -8.786000000
C     1.271000000    -0.900000000    -6.763000000
C     0.843000000    -1.747000000    -5.763000000
H     1.427000000    -2.032000000    -4.892000000
C     1.692000000    -1.223000000    -0.831000000
H     2.638000000    -1.587000000    -1.225000000
C     1.573000000     0.163000000    -0.884000000
H     2.263000000     0.798000000    -1.434000000
C     0.506000000     0.771000000    -0.261000000
H     0.423000000     1.893000000    -0.218000000
C    -0.535000000    -0.048000000     0.167000000
H    -1.442000000     0.437000000     0.518000000
C    -0.406000000    -1.461000000     0.282000000
H    -1.239000000    -2.027000000     0.690000000
C     0.752000000    -2.090000000    -0.208000000
C     1.052000000    -3.575000000    -0.202000000
O     0.134000000    -4.362000000    -0.419000000
O     2.164000000    -3.980000000    -0.299000000
O     5.890000000    -6.256000000     1.287000000
H     6.514000000    -6.001000000     1.966000000
H     5.041000000    -5.960000000     1.618000000
O     3.255000000    -5.093000000     1.942000000
H     2.884000000    -5.038000000     1.061000000
H     3.368000000    -4.182000000     2.212000000
O    -1.846000000    -8.257000000     1.453000000
H    -1.706000000    -8.557000000     0.555000000
H    -1.322000000    -7.459000000     1.523000000
O     1.728000000    -6.693000000    -1.097000000
H     0.870000000    -7.104000000    -0.995000000
H     1.637000000    -5.839000000    -0.675000000
O    -2.334000000    -8.781000000    -1.355000000
H    -1.743000000    -8.188000000    -1.820000000
H    -2.119000000    -9.648000000    -1.697000000
O     6.903000000    -6.264000000    -1.167000000
H     6.529000000    -6.114000000    -0.299000000
H     6.155000000    -6.512000000    -1.711000000
O     4.307000000    -3.898000000    -1.890000000
H     4.276000000    -4.855000000    -1.902000000
H     3.718000000    -3.648000000    -1.178000000
O     0.230000000    -5.577000000    -5.705000000
H     0.919000000    -5.814000000    -5.085000000
H     0.022000000    -4.666000000    -5.496000000
O     3.488000000    -6.755000000     4.074000000
H     3.897000000    -6.288000000     4.803000000
H     3.531000000    -6.141000000     3.341000000
O     2.135000000    -6.345000000    -3.964000000
H     2.071000000    -6.367000000    -3.009000000
H     3.072000000    -6.259000000    -4.140000000
O    -1.074000000    -6.213000000    -1.813000000
H    -0.721000000    -5.380000000    -1.499000000
H    -1.971000000    -6.008000000    -2.076000000
O     4.251000000    -6.947000000    -1.926000000
H     4.066000000    -7.459000000    -2.713000000
H     3.411000000    -6.897000000    -1.469000000
O     7.199000000    -3.749000000    -2.479000000
H     7.441000000    -4.428000000    -1.849000000
H     6.291000000    -3.946000000    -2.707000000
O     1.042000000   -10.366000000     1.197000000
H     1.640000000    -9.646000000     1.399000000
H     1.147000000   -10.976000000     1.927000000
O     0.998000000    -9.897000000    -1.511000000
H     1.895000000    -9.966000000    -1.837000000
H     1.085000000    -9.946000000    -0.559000000
O    -0.028000000    -6.174000000     1.727000000
H    -0.123000000    -5.586000000     0.978000000
H     0.682000000    -5.792000000     2.243000000
O     3.417000000    -3.470000000    -4.600000000
H     3.758000000    -3.872000000    -3.802000000
H     4.080000000    -2.825000000    -4.846000000
O    -1.087000000    -7.610000000    -4.323000000
H    -0.563000000    -7.202000000    -5.012000000
H    -0.771000000    -7.209000000    -3.513000000
O     2.213000000    -9.180000000     3.293000000
H     2.154000000    -9.634000000     4.134000000
H     2.536000000    -8.307000000     3.514000000
