215
-1454.02221
C     3.955000000     0.131000000     3.637000000
H     3.331000000     0.011000000     4.519000000
C     3.741000000     1.122000000     2.668000000
C     4.552000000     1.155000000     1.574000000
H     4.470000000     1.936000000     0.823000000
C     2.557000000     2.072000000     2.811000000
O     2.051000000     2.269000000     4.205000000
H     1.770000000     1.651000000     2.167000000
O     2.850000000     3.340000000     2.168000000
C     1.940000000     3.802000000     1.257000000
C     2.251000000     3.678000000    -0.077000000
H     3.174000000     3.215000000    -0.416000000
C     1.377000000     4.181000000    -1.041000000
O     1.731000000     4.010000000    -2.347000000
C     0.160000000     4.776000000    -0.614000000
C    -0.916000000     5.309000000    -1.518000000
H    -1.544000000     5.970000000    -0.917000000
C    -1.772000000     4.154000000    -2.006000000
C    -2.848000000     3.760000000    -1.214000000
H    -3.045000000     4.321000000    -0.304000000
H    -0.437000000     5.855000000    -2.333000000
C    -0.221000000     4.772000000     0.700000000
H    -1.196000000     5.050000000     1.092000000
C     0.740000000     4.369000000     1.670000000
C     0.466000000     4.471000000     3.212000000
H    -0.242000000     5.283000000     3.390000000
H     1.417000000     4.646000000     3.718000000
C    -0.105000000     3.136000000     3.750000000
C    -1.493000000     2.913000000     3.787000000
H    -2.135000000     3.686000000     3.372000000
C     0.714000000     2.117000000     4.320000000
C     0.182000000     0.927000000     4.782000000
H     0.840000000     0.088000000     4.995000000
C    -1.180000000     0.730000000     4.729000000
O    -1.629000000    -0.556000000     4.785000000
C    -2.013000000    -1.276000000     3.652000000
C    -1.333000000    -2.658000000     3.593000000
C    -1.788000000    -3.607000000     2.680000000
H    -2.578000000    -3.358000000     1.976000000
C    -0.395000000    -3.051000000     4.502000000
H    -0.044000000    -2.358000000     5.262000000
O    -3.443000000    -1.399000000     3.404000000
H    -1.624000000    -0.798000000     2.741000000
C    -2.036000000     1.728000000     4.249000000
C    -3.531000000     1.428000000     4.184000000
H    -4.055000000     2.365000000     4.385000000
H    -3.795000000     0.750000000     4.998000000
C    -3.935000000     0.934000000     2.814000000
C    -4.288000000     1.833000000     1.789000000
H    -4.312000000     2.902000000     1.982000000
C    -3.921000000    -0.431000000     2.557000000
C    -4.237000000    -0.857000000     1.277000000
H    -4.389000000    -1.915000000     1.080000000
C    -4.595000000     0.044000000     0.263000000
O    -4.848000000    -0.471000000    -1.016000000
C    -3.834000000    -0.369000000    -2.069000000
C    -3.712000000    -1.665000000    -2.886000000
C    -4.010000000    -2.898000000    -2.298000000
H    -4.580000000    -2.832000000    -1.375000000
C    -3.028000000    -1.653000000    -4.087000000
H    -2.639000000    -0.752000000    -4.555000000
O    -4.014000000     0.778000000    -2.954000000
H    -2.857000000    -0.383000000    -1.564000000
C    -4.597000000     1.400000000     0.516000000
C    -4.854000000     2.478000000    -0.569000000
H    -5.174000000     3.436000000    -0.154000000
H    -5.728000000     2.170000000    -1.146000000
C    -3.630000000     2.652000000    -1.411000000
C    -3.215000000     1.815000000    -2.530000000
C    -2.101000000     2.129000000    -3.282000000
H    -1.809000000     1.448000000    -4.077000000
C    -1.355000000     3.277000000    -3.028000000
O    -0.169000000     3.370000000    -3.648000000
C     1.102000000     2.886000000    -3.053000000
H     0.841000000     2.079000000    -2.352000000
C     2.004000000     2.311000000    -4.160000000
C     3.354000000     2.366000000    -3.937000000
H     3.745000000     2.926000000    -3.092000000
C     1.411000000     1.472000000    -5.081000000
H     0.333000000     1.336000000    -5.085000000
C     2.279000000     0.605000000    -5.818000000
O     1.829000000    -0.383000000    -6.694000000
C     3.638000000     0.775000000    -5.676000000
H     4.290000000     0.140000000    -6.271000000
C     4.169000000     1.631000000    -4.680000000
O     5.508000000     1.652000000    -4.385000000
C     6.116000000     1.738000000    -3.105000000
C     5.873000000     0.799000000    -2.092000000
H     5.221000000    -0.041000000    -2.317000000
C     6.908000000     2.852000000    -2.865000000
H     7.053000000     3.651000000    -3.588000000
C     7.419000000     3.106000000    -1.622000000
H     7.930000000     4.027000000    -1.352000000
C     7.180000000     2.200000000    -0.543000000
H     7.563000000     2.390000000     0.456000000
C     6.473000000     0.995000000    -0.781000000
O     6.310000000     0.064000000     0.239000000
C     5.555000000     0.170000000     1.354000000
C     5.685000000    -0.828000000     2.275000000
H     6.477000000    -1.529000000     2.023000000
C     4.896000000    -0.895000000     3.414000000
O     5.033000000    -1.961000000     4.301000000
C     4.145000000    -2.466000000     5.197000000
C     3.137000000    -3.322000000     4.673000000
H     3.139000000    -3.528000000     3.606000000
C     4.096000000    -2.030000000     6.547000000
H     4.840000000    -1.295000000     6.846000000
C     3.008000000    -2.520000000     7.347000000
H     2.829000000    -2.170000000     8.360000000
C     2.149000000    -3.483000000     6.860000000
H     1.468000000    -3.973000000     7.552000000
C     2.173000000    -3.839000000     5.526000000
O     1.272000000    -4.699000000     5.097000000
C     0.265000000    -4.324000000     4.318000000
C    -0.117000000    -5.174000000     3.323000000
H     0.499000000    -6.026000000     3.048000000
C    -1.179000000    -4.859000000     2.503000000
O    -1.440000000    -5.569000000     1.363000000
C    -2.739000000    -5.686000000     0.820000000
C    -2.904000000    -5.233000000    -0.493000000
H    -2.071000000    -4.930000000    -1.122000000
C    -3.775000000    -6.247000000     1.615000000
H    -3.575000000    -6.348000000     2.678000000
C    -4.990000000    -6.691000000     0.952000000
H    -5.765000000    -7.258000000     1.461000000
C    -5.090000000    -6.293000000    -0.437000000
H    -5.996000000    -6.423000000    -1.024000000
C    -4.082000000    -5.576000000    -1.084000000
O    -4.249000000    -5.230000000    -2.403000000
C    -3.739000000    -4.064000000    -2.917000000
C    -3.161000000    -4.016000000    -4.174000000
H    -2.777000000    -4.947000000    -4.581000000
C    -2.752000000    -2.850000000    -4.789000000
O    -1.992000000    -2.904000000    -5.959000000
C    -1.482000000    -1.816000000    -6.628000000
C    -2.241000000    -0.783000000    -7.197000000
H    -3.327000000    -0.829000000    -7.185000000
C    -1.589000000     0.322000000    -7.833000000
H    -2.150000000     1.024000000    -8.444000000
C    -0.185000000     0.450000000    -7.701000000
H     0.338000000     1.305000000    -8.121000000
C     0.554000000    -0.541000000    -7.055000000
C    -0.127000000    -1.693000000    -6.614000000
H     0.361000000    -2.500000000    -6.074000000
C     2.488000000    -1.667000000     0.327000000
H     3.573000000    -1.594000000     0.308000000
C     1.699000000    -0.469000000     0.372000000
H     2.193000000     0.499000000     0.342000000
C     0.363000000    -0.562000000     0.429000000
H    -0.128000000     0.360000000     0.409000000
C    -0.264000000    -1.790000000     0.508000000
H    -1.350000000    -1.830000000     0.543000000
C     0.505000000    -2.959000000     0.486000000
H     0.011000000    -3.921000000     0.382000000
C     1.894000000    -2.889000000     0.413000000
C     2.721000000    -4.147000000     0.286000000
O     2.174000000    -5.231000000     0.120000000
O     3.913000000    -4.065000000     0.233000000
O     5.914000000    -4.617000000     1.808000000
H     6.649000000    -5.040000000     1.364000000
H     5.272000000    -4.464000000     1.115000000
O     3.922000000    -6.372000000     3.426000000
H     3.425000000    -6.879000000     2.784000000
H     3.769000000    -5.459000000     3.180000000
O     0.267000000    -6.262000000    -1.399000000
H    -0.214000000    -6.570000000    -0.631000000
H     1.003000000    -5.768000000    -1.037000000
O     6.130000000    -8.743000000    -2.577000000
H     5.666000000    -8.058000000    -2.097000000
H     6.521000000    -8.290000000    -3.324000000
O     0.582000000    -1.337000000    -2.665000000
H     1.538000000    -1.306000000    -2.623000000
H     0.310000000    -1.570000000    -1.778000000
O     7.187000000    -5.290000000    -2.098000000
H     6.430000000    -5.792000000    -1.797000000
H     7.490000000    -5.758000000    -2.876000000
O     5.435000000    -3.274000000    -1.954000000
H     5.220000000    -3.136000000    -1.031000000
H     6.100000000    -3.962000000    -1.945000000
O     0.603000000    -4.398000000    -3.522000000
H     0.752000000    -3.490000000    -3.258000000
H     0.302000000    -4.833000000    -2.724000000
O     2.020000000    -7.433000000     1.600000000
H     1.540000000    -7.935000000     0.941000000
H     1.977000000    -6.528000000     1.292000000
O     4.775000000    -6.286000000    -1.248000000
H     4.609000000    -7.071000000    -0.725000000
H     4.207000000    -5.618000000    -0.863000000
O     4.048000000    -5.636000000    -3.880000000
H     4.289000000    -5.785000000    -2.966000000
H     4.597000000    -4.901000000    -4.156000000
O     0.038000000    -8.866000000     0.562000000
H     0.178000000    -9.748000000     0.219000000
H    -0.906000000    -8.813000000     0.711000000
O     1.821000000    -5.657000000    -5.498000000
H     2.666000000    -5.859000000    -5.097000000
H     1.351000000    -5.158000000    -4.829000000
O     6.337000000    -7.295000000     2.633000000
H     5.615000000    -6.703000000     2.846000000
H     7.090000000    -6.718000000     2.508000000
O     1.614000000    -9.495000000     3.383000000
H     1.701000000    -8.888000000     2.648000000
H     1.646000000    -8.936000000     4.159000000
O     4.191000000    -8.853000000    -0.175000000
H     4.160000000    -8.745000000     0.776000000
H     3.649000000    -9.623000000    -0.346000000
O     0.570000000    -7.697000000    -3.772000000
H     0.453000000    -7.122000000    -3.015000000
H     1.050000000    -7.163000000    -4.405000000
O     7.415000000    -3.753000000     4.092000000
H     6.854000000    -3.471000000     4.814000000
H     6.809000000    -4.106000000     3.441000000
O     3.268000000    -1.609000000    -2.750000000
H     3.928000000    -2.014000000    -2.187000000
H     3.768000000    -1.245000000    -3.480000000
