215
-1446.04663
C     3.373000000     0.612000000     3.235000000
H     2.581000000     0.374000000     3.940000000
C     3.199000000     1.670000000     2.364000000
C     4.221000000     1.894000000     1.418000000
H     3.967000000     2.683000000     0.715000000
C     1.958000000     2.540000000     2.389000000
O     1.474000000     2.835000000     3.754000000
H     1.270000000     1.966000000     1.752000000
O     2.099000000     3.781000000     1.774000000
C     1.213000000     4.287000000     0.860000000
C     1.542000000     4.278000000    -0.422000000
H     2.565000000     4.146000000    -0.765000000
C     0.584000000     4.638000000    -1.411000000
O     0.960000000     4.481000000    -2.748000000
C    -0.719000000     4.895000000    -0.997000000
C    -1.810000000     5.101000000    -2.031000000
H    -2.635000000     5.717000000    -1.666000000
C    -2.359000000     3.708000000    -2.459000000
C    -3.563000000     3.257000000    -1.892000000
H    -4.041000000     3.921000000    -1.178000000
H    -1.453000000     5.538000000    -2.966000000
C    -1.123000000     4.827000000     0.347000000
H    -2.165000000     5.031000000     0.578000000
C    -0.106000000     4.522000000     1.291000000
C    -0.452000000     4.682000000     2.746000000
H    -1.319000000     5.344000000     2.795000000
H     0.379000000     5.126000000     3.299000000
C    -0.827000000     3.337000000     3.307000000
C    -2.162000000     2.873000000     3.316000000
H    -2.889000000     3.513000000     2.822000000
C     0.156000000     2.546000000     3.922000000
C    -0.128000000     1.275000000     4.361000000
H     0.610000000     0.563000000     4.722000000
C    -1.441000000     0.838000000     4.322000000
O    -1.628000000    -0.424000000     4.712000000
C    -1.843000000    -1.356000000     3.677000000
C    -1.342000000    -2.757000000     4.067000000
C    -1.919000000    -3.873000000     3.425000000
H    -2.673000000    -3.685000000     2.664000000
C    -0.269000000    -2.935000000     4.920000000
H     0.347000000    -2.100000000     5.245000000
O    -3.216000000    -1.508000000     3.401000000
H    -1.358000000    -1.118000000     2.718000000
C    -2.449000000     1.642000000     3.852000000
C    -3.897000000     1.246000000     3.768000000
H    -4.574000000     2.094000000     3.884000000
H    -4.105000000     0.570000000     4.601000000
C    -4.134000000     0.502000000     2.476000000
C    -4.493000000     1.244000000     1.336000000
H    -4.763000000     2.293000000     1.429000000
C    -3.785000000    -0.785000000     2.367000000
C    -3.918000000    -1.478000000     1.181000000
H    -3.747000000    -2.548000000     1.088000000
C    -4.334000000    -0.775000000     0.041000000
O    -4.227000000    -1.478000000    -1.186000000
C    -3.141000000    -1.172000000    -2.038000000
C    -2.615000000    -2.478000000    -2.607000000
C    -2.730000000    -3.721000000    -1.940000000
H    -3.148000000    -3.670000000    -0.938000000
C    -1.891000000    -2.467000000    -3.787000000
H    -1.716000000    -1.517000000    -4.285000000
O    -3.587000000    -0.207000000    -3.052000000
H    -2.340000000    -0.810000000    -1.376000000
C    -4.605000000     0.613000000     0.075000000
C    -5.079000000     1.419000000    -1.088000000
H    -5.600000000     2.288000000    -0.679000000
H    -5.862000000     0.959000000    -1.694000000
C    -3.913000000     1.916000000    -1.997000000
C    -3.333000000     1.160000000    -2.991000000
C    -2.275000000     1.655000000    -3.637000000
H    -1.721000000     1.062000000    -4.361000000
C    -1.678000000     2.855000000    -3.340000000
O    -0.534000000     3.205000000    -3.964000000
C     0.772000000     3.138000000    -3.194000000
H     0.626000000     2.627000000    -2.231000000
C     1.836000000     2.458000000    -4.098000000
C     3.138000000     2.691000000    -3.759000000
H     3.435000000     3.424000000    -3.012000000
C     1.494000000     1.436000000    -4.938000000
H     0.475000000     1.079000000    -5.060000000
C     2.464000000     0.746000000    -5.621000000
O     2.230000000    -0.099000000    -6.674000000
C     3.829000000     0.994000000    -5.360000000
H     4.550000000     0.351000000    -5.857000000
C     4.157000000     1.958000000    -4.371000000
O     5.488000000     2.244000000    -4.103000000
C     5.897000000     2.767000000    -2.835000000
C     5.878000000     1.917000000    -1.725000000
H     5.647000000     0.861000000    -1.840000000
C     6.364000000     4.111000000    -2.648000000
H     6.431000000     4.830000000    -3.461000000
C     6.882000000     4.549000000    -1.467000000
H     7.275000000     5.561000000    -1.408000000
C     6.729000000     3.741000000    -0.370000000
H     7.094000000     4.012000000     0.618000000
C     6.250000000     2.446000000    -0.477000000
O     6.431000000     1.567000000     0.591000000
C     5.433000000     1.231000000     1.448000000
C     5.552000000     0.155000000     2.326000000
H     6.373000000    -0.541000000     2.172000000
C     4.499000000    -0.133000000     3.173000000
O     4.610000000    -1.383000000     3.837000000
C     3.871000000    -1.770000000     4.900000000
C     2.869000000    -2.745000000     4.823000000
H     2.469000000    -3.098000000     3.876000000
C     4.408000000    -1.348000000     6.153000000
H     5.195000000    -0.602000000     6.227000000
C     3.742000000    -1.796000000     7.318000000
H     4.018000000    -1.558000000     8.343000000
C     2.749000000    -2.733000000     7.229000000
H     2.423000000    -3.196000000     8.157000000
C     2.305000000    -3.243000000     5.991000000
O     1.390000000    -4.304000000     5.894000000
C     0.180000000    -4.201000000     5.197000000
C    -0.431000000    -5.320000000     4.577000000
H     0.092000000    -6.271000000     4.511000000
C    -1.493000000    -5.136000000     3.716000000
O    -1.746000000    -6.253000000     2.867000000
C    -2.516000000    -6.323000000     1.815000000
C    -1.923000000    -6.016000000     0.576000000
H    -0.878000000    -5.746000000     0.447000000
C    -3.895000000    -6.497000000     2.000000000
H    -4.235000000    -6.562000000     3.030000000
C    -4.711000000    -6.491000000     0.868000000
H    -5.765000000    -6.755000000     0.896000000
C    -4.188000000    -6.407000000    -0.364000000
H    -4.770000000    -6.476000000    -1.279000000
C    -2.732000000    -6.188000000    -0.525000000
O    -2.197000000    -6.072000000    -1.780000000
C    -2.221000000    -4.887000000    -2.498000000
C    -1.713000000    -4.853000000    -3.788000000
H    -1.414000000    -5.805000000    -4.219000000
C    -1.447000000    -3.628000000    -4.425000000
O    -0.750000000    -3.669000000    -5.606000000
C    -0.429000000    -2.593000000    -6.453000000
C    -1.355000000    -2.097000000    -7.347000000
H    -2.316000000    -2.600000000    -7.419000000
C    -1.123000000    -0.846000000    -7.958000000
H    -1.951000000    -0.479000000    -8.558000000
C     0.110000000    -0.225000000    -7.697000000
H     0.384000000     0.712000000    -8.176000000
C     1.044000000    -0.810000000    -6.788000000
C     0.792000000    -1.983000000    -6.180000000
H     1.502000000    -2.489000000    -5.531000000
C     2.457000000    -0.915000000     0.127000000
H     3.541000000    -0.970000000     0.088000000
C     1.755000000     0.223000000    -0.358000000
H     2.212000000     1.132000000    -0.741000000
C     0.359000000     0.166000000    -0.212000000
H    -0.176000000     1.028000000    -0.553000000
C    -0.274000000    -0.949000000     0.315000000
H    -1.353000000    -1.076000000     0.355000000
C     0.460000000    -2.011000000     0.817000000
H    -0.005000000    -2.890000000     1.258000000
C     1.825000000    -1.992000000     0.730000000
C     2.540000000    -3.254000000     1.029000000
O     1.938000000    -4.290000000     1.367000000
O     3.712000000    -3.184000000     1.093000000
O     5.185000000    -4.581000000     2.699000000
H     5.997000000    -4.282000000     2.290000000
H     4.492000000    -4.152000000     2.198000000
O     1.851000000    -6.480000000     2.744000000
H     0.903000000    -6.350000000     2.778000000
H     2.182000000    -5.707000000     2.286000000
O     5.431000000    -5.734000000    -4.359000000
H     6.071000000    -5.101000000    -4.033000000
H     5.428000000    -6.432000000    -3.704000000
O     4.097000000    -8.721000000    -0.113000000
H     3.832000000    -8.888000000    -1.017000000
H     3.280000000    -8.525000000     0.345000000
O     2.572000000    -4.215000000    -3.066000000
H     3.100000000    -4.753000000    -2.477000000
H     2.972000000    -3.346000000    -3.020000000
O     6.787000000    -4.801000000    -1.019000000
H     6.712000000    -3.850000000    -0.941000000
H     5.884000000    -5.117000000    -0.977000000
O     5.826000000    -2.315000000    -0.335000000
H     5.423000000    -1.971000000    -1.132000000
H     5.124000000    -2.799000000     0.099000000
O     1.056000000    -6.679000000    -3.216000000
H     1.043000000    -5.735000000    -3.373000000
H     1.458000000    -6.772000000    -2.352000000
O     5.820000000    -7.696000000     2.756000000
H     5.282000000    -6.940000000     2.520000000
H     6.701000000    -7.339000000     2.864000000
O     8.771000000    -5.934000000     0.508000000
H     8.868000000    -5.426000000     1.313000000
H     8.229000000    -5.386000000    -0.058000000
O     1.968000000    -6.327000000    -0.301000000
H     1.171000000    -6.856000000    -0.302000000
H     1.852000000    -5.720000000     0.430000000
O     4.401000000    -6.083000000    -1.341000000
H     3.586000000    -5.764000000    -0.953000000
H     4.425000000    -7.013000000    -1.118000000
O    -0.160000000    -8.563000000     0.206000000
H     0.101000000    -9.247000000     0.823000000
H    -1.084000000    -8.404000000     0.401000000
O     8.419000000    -3.443000000     2.416000000
H     8.166000000    -3.246000000     1.514000000
H     8.594000000    -2.588000000     2.808000000
O     3.334000000    -4.972000000    -5.643000000
H     2.720000000    -4.783000000    -4.934000000
H     4.129000000    -5.269000000    -5.198000000
O     3.483000000    -7.281000000     5.025000000
H     4.341000000    -7.324000000     4.603000000
H     2.918000000    -6.863000000     4.375000000
O     8.560000000    -1.929000000    -0.247000000
H     8.856000000    -1.374000000    -0.968000000
H     7.609000000    -1.972000000    -0.352000000
O     6.035000000    -3.981000000     5.332000000
H     5.401000000    -3.652000000     5.969000000
H     5.515000000    -4.162000000     4.549000000
O     3.758000000    -1.761000000    -2.393000000
H     3.001000000    -1.241000000    -2.124000000
H     3.964000000    -1.447000000    -3.273000000
