215
-1474.57560
C     3.652000000     0.370000000     2.982000000
H     2.865000000     0.041000000     3.656000000
C     3.556000000     1.414000000     2.057000000
C     4.508000000     1.530000000     1.040000000
H     4.484000000     2.212000000     0.194000000
C     2.350000000     2.342000000     2.014000000
O     1.837000000     2.591000000     3.418000000
H     1.514000000     1.819000000     1.526000000
O     2.649000000     3.601000000     1.335000000
C     1.622000000     4.187000000     0.607000000
C     1.893000000     4.191000000    -0.741000000
H     2.833000000     3.751000000    -1.066000000
C     0.883000000     4.528000000    -1.674000000
O     1.127000000     4.094000000    -2.941000000
C    -0.385000000     4.859000000    -1.219000000
C    -1.513000000     5.007000000    -2.203000000
H    -2.288000000     5.723000000    -1.923000000
C    -2.198000000     3.676000000    -2.441000000
C    -3.300000000     3.296000000    -1.656000000
H    -3.682000000     3.851000000    -0.803000000
H    -1.206000000     5.421000000    -3.166000000
C    -0.626000000     5.000000000     0.198000000
H    -1.655000000     5.243000000     0.454000000
C     0.407000000     4.659000000     1.113000000
C     0.113000000     4.765000000     2.602000000
H    -0.587000000     5.564000000     2.855000000
H     1.052000000     5.000000000     3.108000000
C    -0.409000000     3.438000000     3.172000000
C    -1.767000000     3.241000000     3.316000000
H    -2.459000000     3.908000000     2.808000000
C     0.465000000     2.446000000     3.631000000
C    -0.059000000     1.332000000     4.267000000
H     0.494000000     0.566000000     4.806000000
C    -1.440000000     1.133000000     4.397000000
O    -1.901000000    -0.100000000     4.889000000
C    -2.193000000    -1.170000000     3.961000000
C    -1.516000000    -2.469000000     4.424000000
C    -1.990000000    -3.629000000     3.802000000
H    -2.878000000    -3.773000000     3.191000000
C    -0.344000000    -2.557000000     5.146000000
H    -0.025000000    -1.753000000     5.804000000
O    -3.619000000    -1.273000000     3.768000000
H    -1.767000000    -0.826000000     3.007000000
C    -2.322000000     2.101000000     3.936000000
C    -3.817000000     1.780000000     3.968000000
H    -4.395000000     2.706000000     4.019000000
H    -4.139000000     1.229000000     4.854000000
C    -4.094000000     0.933000000     2.731000000
C    -4.514000000     1.580000000     1.596000000
H    -4.769000000     2.637000000     1.592000000
C    -4.061000000    -0.477000000     2.716000000
C    -4.132000000    -1.148000000     1.482000000
H    -4.046000000    -2.229000000     1.557000000
C    -4.345000000    -0.450000000     0.286000000
O    -4.324000000    -1.248000000    -0.819000000
C    -3.263000000    -0.992000000    -1.762000000
C    -2.687000000    -2.234000000    -2.357000000
C    -2.675000000    -3.384000000    -1.566000000
H    -2.876000000    -3.407000000    -0.498000000
C    -2.294000000    -2.349000000    -3.665000000
H    -2.308000000    -1.426000000    -4.238000000
O    -3.775000000    -0.098000000    -2.814000000
H    -2.459000000    -0.515000000    -1.182000000
C    -4.638000000     0.949000000     0.373000000
C    -5.137000000     1.643000000    -0.890000000
H    -5.723000000     2.554000000    -0.747000000
H    -5.731000000     0.932000000    -1.468000000
C    -3.960000000     2.060000000    -1.813000000
C    -3.442000000     1.224000000    -2.850000000
C    -2.317000000     1.557000000    -3.603000000
H    -1.836000000     0.806000000    -4.225000000
C    -1.709000000     2.837000000    -3.458000000
O    -0.589000000     3.058000000    -4.185000000
C     0.551000000     2.844000000    -3.407000000
H     0.217000000     2.177000000    -2.598000000
C     1.551000000     2.103000000    -4.303000000
C     2.922000000     2.249000000    -3.975000000
H     3.267000000     2.885000000    -3.164000000
C     1.129000000     1.192000000    -5.288000000
H     0.085000000     0.996000000    -5.516000000
C     2.108000000     0.459000000    -5.950000000
O     1.822000000    -0.456000000    -6.945000000
C     3.465000000     0.545000000    -5.559000000
H     4.164000000    -0.113000000    -6.070000000
C     3.897000000     1.534000000    -4.682000000
O     5.220000000     1.560000000    -4.438000000
C     5.879000000     2.007000000    -3.280000000
C     5.921000000     1.153000000    -2.149000000
H     5.545000000     0.134000000    -2.187000000
C     6.317000000     3.327000000    -3.187000000
H     6.199000000     3.892000000    -4.108000000
C     7.105000000     3.728000000    -2.066000000
H     7.538000000     4.725000000    -2.043000000
C     7.165000000     2.862000000    -0.954000000
H     7.657000000     3.165000000    -0.033000000
C     6.570000000     1.605000000    -0.990000000
O     6.690000000     0.765000000     0.140000000
C     5.665000000     0.695000000     1.104000000
C     5.806000000    -0.263000000     2.076000000
H     6.647000000    -0.948000000     2.009000000
C     4.804000000    -0.490000000     2.998000000
O     4.953000000    -1.562000000     3.910000000
C     4.182000000    -1.741000000     5.011000000
C     3.256000000    -2.863000000     5.046000000
H     3.100000000    -3.540000000     4.210000000
C     4.190000000    -0.841000000     6.061000000
H     4.890000000    -0.013000000     5.986000000
C     3.389000000    -1.011000000     7.208000000
H     3.450000000    -0.349000000     8.068000000
C     2.597000000    -2.130000000     7.286000000
H     1.932000000    -2.229000000     8.140000000
C     2.440000000    -2.986000000     6.167000000
O     1.420000000    -3.948000000     6.143000000
C     0.348000000    -3.732000000     5.379000000
C    -0.090000000    -4.827000000     4.640000000
H     0.533000000    -5.716000000     4.701000000
C    -1.268000000    -4.773000000     3.913000000
O    -1.589000000    -5.948000000     3.330000000
C    -2.429000000    -6.064000000     2.307000000
C    -1.904000000    -5.865000000     1.011000000
H    -0.854000000    -5.667000000     0.812000000
C    -3.779000000    -6.485000000     2.389000000
H    -4.297000000    -6.733000000     3.312000000
C    -4.594000000    -6.484000000     1.287000000
H    -5.661000000    -6.615000000     1.453000000
C    -4.117000000    -6.277000000    -0.018000000
H    -4.767000000    -6.144000000    -0.879000000
C    -2.740000000    -5.986000000    -0.102000000
O    -2.133000000    -5.678000000    -1.333000000
C    -2.234000000    -4.590000000    -2.125000000
C    -1.870000000    -4.718000000    -3.497000000
H    -1.537000000    -5.639000000    -3.969000000
C    -1.973000000    -3.585000000    -4.251000000
O    -1.465000000    -3.697000000    -5.518000000
C    -1.137000000    -2.598000000    -6.266000000
C    -2.028000000    -2.091000000    -7.191000000
H    -3.025000000    -2.510000000    -7.302000000
C    -1.712000000    -0.917000000    -7.938000000
H    -2.430000000    -0.416000000    -8.582000000
C    -0.423000000    -0.333000000    -7.798000000
H    -0.193000000     0.564000000    -8.368000000
C     0.535000000    -0.972000000    -7.019000000
C     0.156000000    -2.036000000    -6.224000000
H     0.891000000    -2.490000000    -5.564000000
C     2.571000000    -1.327000000    -0.156000000
H     3.561000000    -1.667000000    -0.450000000
C     1.993000000    -0.156000000    -0.642000000
H     2.513000000     0.497000000    -1.338000000
C     0.666000000     0.147000000    -0.239000000
H     0.258000000     1.085000000    -0.601000000
C    -0.061000000    -0.791000000     0.475000000
H    -1.120000000    -0.660000000     0.682000000
C     0.569000000    -1.927000000     0.975000000
H    -0.012000000    -2.718000000     1.442000000
C     1.871000000    -2.224000000     0.599000000
C     2.485000000    -3.620000000     0.904000000
O     1.708000000    -4.490000000     1.139000000
O     3.516000000    -3.935000000     0.397000000
O     5.239000000    -4.739000000     2.127000000
H     5.698000000    -5.509000000     1.791000000
H     4.472000000    -4.651000000     1.562000000
O     3.884000000    -6.466000000     4.179000000
H     3.095000000    -6.270000000     3.675000000
H     4.521000000    -5.812000000     3.891000000
O     3.914000000    -8.436000000    -2.843000000
H     4.544000000    -8.378000000    -3.561000000
H     3.967000000    -7.585000000    -2.408000000
O     3.856000000    -7.404000000     0.645000000
H     3.122000000    -7.075000000     1.163000000
H     3.885000000    -6.830000000    -0.121000000
O     1.055000000    -2.776000000    -3.056000000
H     1.860000000    -2.462000000    -3.468000000
H     0.927000000    -2.196000000    -2.306000000
O     6.601000000    -5.014000000    -2.727000000
H     6.308000000    -5.921000000    -2.811000000
H     7.461000000    -5.001000000    -3.147000000
O     5.459000000    -2.772000000    -1.581000000
H     5.931000000    -3.527000000    -1.931000000
H     4.772000000    -3.152000000    -1.033000000
O     0.879000000    -5.229000000    -1.379000000
H     0.661000000    -4.486000000    -1.942000000
H     0.764000000    -4.896000000    -0.489000000
O     7.411000000    -5.902000000     0.413000000
H     7.175000000    -4.998000000     0.205000000
H     7.139000000    -6.403000000    -0.356000000
O     1.722000000    -6.928000000     2.412000000
H     1.397000000    -7.601000000     1.814000000
H     1.466000000    -6.101000000     2.005000000
O     3.461000000    -5.799000000    -1.953000000
H     3.683000000    -5.145000000    -1.290000000
H     2.511000000    -5.895000000    -1.886000000
O     3.713000000    -5.326000000    -4.889000000
H     3.681000000    -5.482000000    -3.946000000
H     3.528000000    -4.392000000    -4.984000000
O     0.955000000    -8.977000000     0.895000000
H     1.422000000    -9.806000000     0.993000000
H     0.037000000    -9.199000000     1.053000000
O     8.044000000    -3.059000000    -0.403000000
H     8.195000000    -2.366000000     0.240000000
H     7.243000000    -2.794000000    -0.856000000
O     1.000000000    -6.842000000    -3.854000000
H     1.303000000    -6.064000000    -3.386000000
H     0.690000000    -7.430000000    -3.165000000
O     4.096000000    -9.339000000     3.061000000
H     4.075000000    -8.817000000     2.259000000
H     3.749000000    -8.755000000     3.736000000
O    -0.198000000    -8.222000000    -1.513000000
H    -0.553000000    -7.362000000    -1.290000000
H     0.117000000    -8.574000000    -0.681000000
O     7.075000000    -3.495000000     3.736000000
H     6.687000000    -2.653000000     3.973000000
H     6.439000000    -3.894000000     3.142000000
O     3.876000000    -2.821000000    -4.034000000
H     4.553000000    -2.520000000    -4.640000000
H     4.294000000    -2.792000000    -3.174000000
