215
-1441.09105
C     3.982000000     0.497000000     2.769000000
H     3.350000000     0.245000000     3.617000000
C     3.726000000     1.597000000     1.924000000
C     4.668000000     1.850000000     0.866000000
H     4.561000000     2.690000000     0.184000000
C     2.540000000     2.530000000     2.069000000
O     2.162000000     2.636000000     3.531000000
H     1.789000000     2.009000000     1.457000000
O     2.631000000     3.765000000     1.362000000
C     1.597000000     4.214000000     0.624000000
C     1.769000000     4.150000000    -0.743000000
H     2.678000000     3.698000000    -1.132000000
C     0.688000000     4.463000000    -1.536000000
O     0.737000000     4.168000000    -2.849000000
C    -0.526000000     4.746000000    -0.968000000
C    -1.783000000     4.931000000    -1.818000000
H    -2.414000000     5.596000000    -1.224000000
C    -2.427000000     3.658000000    -2.026000000
C    -3.515000000     3.372000000    -1.210000000
H    -3.911000000     4.092000000    -0.499000000
H    -1.525000000     5.468000000    -2.733000000
C    -0.640000000     4.900000000     0.422000000
H    -1.623000000     5.131000000     0.823000000
C     0.472000000     4.674000000     1.201000000
C     0.395000000     4.791000000     2.767000000
H    -0.327000000     5.575000000     3.005000000
H     1.404000000     5.074000000     3.074000000
C    -0.093000000     3.458000000     3.536000000
C    -1.459000000     3.163000000     3.728000000
H    -2.139000000     3.965000000     3.452000000
C     0.835000000     2.430000000     3.818000000
C     0.444000000     1.172000000     4.292000000
H     1.148000000     0.365000000     4.479000000
C    -0.928000000     0.964000000     4.491000000
O    -1.377000000    -0.265000000     4.995000000
C    -1.749000000    -1.259000000     4.003000000
C    -0.966000000    -2.581000000     4.170000000
C    -1.302000000    -3.599000000     3.287000000
H    -2.055000000    -3.360000000     2.540000000
C     0.142000000    -2.762000000     4.992000000
H     0.427000000    -1.853000000     5.516000000
O    -3.167000000    -1.391000000     3.953000000
H    -1.335000000    -0.873000000     3.060000000
C    -1.909000000     1.939000000     4.192000000
C    -3.312000000     1.556000000     4.356000000
H    -3.899000000     2.471000000     4.456000000
H    -3.492000000     1.057000000     5.311000000
C    -3.927000000     0.796000000     3.145000000
C    -4.374000000     1.491000000     2.009000000
H    -4.384000000     2.577000000     2.057000000
C    -3.873000000    -0.601000000     3.066000000
C    -4.219000000    -1.265000000     1.897000000
H    -4.126000000    -2.340000000     1.768000000
C    -4.679000000    -0.552000000     0.800000000
O    -4.922000000    -1.215000000    -0.393000000
C    -3.829000000    -1.129000000    -1.358000000
C    -3.518000000    -2.382000000    -2.111000000
C    -3.869000000    -3.619000000    -1.621000000
H    -4.469000000    -3.696000000    -0.719000000
C    -2.677000000    -2.375000000    -3.211000000
H    -2.283000000    -1.390000000    -3.443000000
O    -4.126000000    -0.104000000    -2.293000000
H    -2.895000000    -0.797000000    -0.879000000
C    -4.820000000     0.831000000     0.861000000
C    -5.262000000     1.683000000    -0.408000000
H    -5.711000000     2.604000000    -0.029000000
H    -6.031000000     1.209000000    -1.022000000
C    -4.175000000     2.092000000    -1.355000000
C    -3.554000000     1.150000000    -2.157000000
C    -2.506000000     1.479000000    -3.010000000
H    -2.206000000     0.685000000    -3.690000000
C    -1.990000000     2.732000000    -2.974000000
O    -0.945000000     2.974000000    -3.794000000
C     0.367000000     2.845000000    -3.264000000
H     0.413000000     2.157000000    -2.407000000
C     1.306000000     2.216000000    -4.333000000
C     2.727000000     2.299000000    -4.184000000
H     3.159000000     2.865000000    -3.363000000
C     0.791000000     1.443000000    -5.338000000
H    -0.288000000     1.493000000    -5.459000000
C     1.575000000     0.791000000    -6.269000000
O     1.041000000     0.049000000    -7.307000000
C     2.945000000     0.763000000    -6.038000000
H     3.595000000     0.145000000    -6.652000000
C     3.509000000     1.536000000    -5.028000000
O     4.854000000     1.315000000    -4.722000000
C     5.588000000     1.957000000    -3.734000000
C     5.528000000     1.503000000    -2.397000000
H     4.761000000     0.789000000    -2.107000000
C     6.414000000     2.917000000    -4.087000000
H     6.424000000     3.243000000    -5.124000000
C     7.207000000     3.517000000    -3.166000000
H     7.761000000     4.394000000    -3.489000000
C     7.270000000     3.028000000    -1.909000000
H     7.882000000     3.448000000    -1.114000000
C     6.424000000     1.959000000    -1.482000000
O     6.696000000     1.300000000    -0.270000000
C     5.712000000     1.017000000     0.661000000
C     5.916000000    -0.121000000     1.493000000
H     6.805000000    -0.744000000     1.431000000
C     5.039000000    -0.393000000     2.507000000
O     5.308000000    -1.449000000     3.306000000
C     4.669000000    -1.814000000     4.431000000
C     3.693000000    -2.823000000     4.461000000
H     3.509000000    -3.395000000     3.556000000
C     4.880000000    -1.015000000     5.590000000
H     5.528000000    -0.143000000     5.562000000
C     4.296000000    -1.320000000     6.762000000
H     4.486000000    -0.734000000     7.659000000
C     3.341000000    -2.366000000     6.769000000
H     2.849000000    -2.515000000     7.726000000
C     3.091000000    -3.112000000     5.646000000
O     2.093000000    -4.084000000     5.613000000
C     0.927000000    -3.921000000     4.924000000
C     0.511000000    -4.979000000     4.152000000
H     1.019000000    -5.940000000     4.149000000
C    -0.594000000    -4.821000000     3.303000000
O    -0.873000000    -5.794000000     2.385000000
C    -2.076000000    -5.945000000     1.803000000
C    -2.225000000    -6.083000000     0.440000000
H    -1.266000000    -6.169000000    -0.064000000
C    -3.242000000    -6.100000000     2.569000000
H    -3.116000000    -6.211000000     3.643000000
C    -4.473000000    -6.321000000     1.957000000
H    -5.302000000    -6.404000000     2.654000000
C    -4.589000000    -6.333000000     0.596000000
H    -5.537000000    -6.539000000     0.104000000
C    -3.471000000    -6.197000000    -0.175000000
O    -3.563000000    -6.073000000    -1.563000000
C    -3.371000000    -4.835000000    -2.160000000
C    -2.511000000    -4.787000000    -3.341000000
H    -2.222000000    -5.713000000    -3.832000000
C    -2.175000000    -3.498000000    -3.888000000
O    -1.329000000    -3.384000000    -4.995000000
C    -1.291000000    -2.257000000    -5.741000000
C    -2.450000000    -1.918000000    -6.473000000
H    -3.289000000    -2.594000000    -6.332000000
C    -2.398000000    -1.017000000    -7.557000000
H    -3.294000000    -0.784000000    -8.126000000
C    -1.241000000    -0.403000000    -7.810000000
H    -1.268000000     0.441000000    -8.495000000
C    -0.101000000    -0.709000000    -7.090000000
C    -0.075000000    -1.679000000    -6.110000000
H     0.861000000    -1.950000000    -5.628000000
C     1.616000000    -0.699000000    -0.384000000
H     2.577000000    -0.282000000    -0.676000000
C     0.510000000     0.139000000    -0.240000000
H     0.670000000     1.197000000    -0.430000000
C    -0.646000000    -0.432000000     0.232000000
H    -1.485000000     0.122000000     0.607000000
C    -0.798000000    -1.870000000     0.321000000
H    -1.805000000    -2.233000000     0.508000000
C     0.248000000    -2.673000000     0.050000000
H     0.203000000    -3.759000000     0.019000000
C     1.455000000    -2.078000000    -0.294000000
C     2.721000000    -2.884000000    -0.670000000
O     2.664000000    -4.060000000    -0.901000000
O     3.741000000    -2.293000000    -0.911000000
O     5.497000000    -1.363000000    -2.695000000
H     4.846000000    -1.671000000    -2.065000000
H     5.068000000    -1.451000000    -3.546000000
O     5.423000000    -7.079000000     4.067000000
H     5.001000000    -6.990000000     4.921000000
H     5.206000000    -6.268000000     3.607000000
O     3.303000000    -5.548000000     1.332000000
H     4.156000000    -5.367000000     1.728000000
H     3.293000000    -5.020000000     0.534000000
O     2.566000000    -4.009000000    -3.776000000
H     2.829000000    -4.909000000    -3.584000000
H     2.182000000    -3.692000000    -2.959000000
O     6.722000000    -4.363000000    -3.785000000
H     6.222000000    -3.908000000    -3.107000000
H     6.493000000    -3.911000000    -4.597000000
O     1.320000000    -5.350000000    -5.867000000
H     0.910000000    -5.988000000    -5.283000000
H     1.768000000    -4.741000000    -5.280000000
O     0.212000000    -6.885000000    -3.946000000
H    -0.576000000    -7.428000000    -3.910000000
H     0.371000000    -6.633000000    -3.037000000
O     3.306000000    -7.106000000    -3.534000000
H     3.560000000    -7.369000000    -4.419000000
H     4.131000000    -7.059000000    -3.052000000
O     2.914000000    -7.985000000     0.066000000
H     2.366000000    -7.446000000    -0.504000000
H     3.203000000    -7.387000000     0.756000000
O     9.051000000    -4.089000000    -2.558000000
H     8.274000000    -4.322000000    -3.065000000
H     8.741000000    -3.437000000    -1.930000000
O     5.933000000    -7.848000000    -0.453000000
H     6.689000000    -7.350000000    -0.143000000
H     5.451000000    -7.233000000    -1.007000000
O     4.914000000    -5.019000000    -1.453000000
H     4.119000000    -4.513000000    -1.283000000
H     5.592000000    -4.578000000    -0.942000000
O     1.305000000    -6.283000000    -1.705000000
H     1.559000000    -5.415000000    -1.392000000
H     1.982000000    -6.517000000    -2.340000000
O     5.874000000    -3.204000000     0.568000000
H     5.165000000    -2.695000000     0.175000000
H     6.673000000    -2.830000000     0.195000000
O     6.695000000    -0.468000000    -5.738000000
H     6.718000000     0.369000000    -6.203000000
H     5.963000000    -0.383000000    -5.128000000
O     4.215000000    -2.227000000    -4.885000000
H     4.683000000    -2.890000000    -5.393000000
H     3.511000000    -2.710000000    -4.452000000
O     8.388000000    -6.465000000     0.344000000
H     8.683000000    -6.434000000     1.254000000
H     8.691000000    -5.640000000    -0.035000000
O     5.397000000    -4.806000000     2.694000000
H     5.613000000    -4.184000000     1.999000000
H     6.063000000    -4.657000000     3.365000000
O     8.223000000    -1.603000000    -1.527000000
H     8.653000000    -0.748000000    -1.523000000
H     7.301000000    -1.407000000    -1.697000000
