215
-1459.02073
C     3.987000000     0.118000000     3.352000000
H     3.190000000    -0.147000000     4.042000000
C     3.963000000     1.382000000     2.679000000
C     5.036000000     1.744000000     1.774000000
H     4.958000000     2.675000000     1.219000000
C     2.753000000     2.235000000     2.585000000
O     2.174000000     2.307000000     3.890000000
H     2.038000000     1.726000000     1.920000000
O     2.984000000     3.600000000     2.119000000
C     2.023000000     4.055000000     1.279000000
C     2.266000000     3.970000000    -0.138000000
H     3.189000000     3.535000000    -0.515000000
C     1.273000000     4.343000000    -1.036000000
O     1.561000000     4.161000000    -2.299000000
C     0.075000000     4.811000000    -0.610000000
C    -0.999000000     5.321000000    -1.583000000
H    -1.631000000     6.030000000    -1.045000000
C    -1.792000000     4.085000000    -2.066000000
C    -2.990000000     3.805000000    -1.405000000
H    -3.308000000     4.398000000    -0.551000000
H    -0.485000000     5.817000000    -2.409000000
C    -0.132000000     4.961000000     0.742000000
H    -1.000000000     5.496000000     1.118000000
C     0.807000000     4.609000000     1.692000000
C     0.598000000     4.720000000     3.183000000
H    -0.049000000     5.565000000     3.428000000
H     1.539000000     4.887000000     3.710000000
C     0.012000000     3.381000000     3.668000000
C    -1.380000000     3.251000000     3.776000000
H    -2.017000000     4.096000000     3.525000000
C     0.829000000     2.281000000     3.999000000
C     0.216000000     1.150000000     4.437000000
H     0.858000000     0.312000000     4.697000000
C    -1.147000000     0.958000000     4.441000000
O    -1.444000000    -0.336000000     4.669000000
C    -2.113000000    -1.031000000     3.576000000
C    -1.718000000    -2.469000000     3.508000000
C    -2.640000000    -3.393000000     3.026000000
H    -3.701000000    -3.171000000     2.943000000
C    -0.382000000    -2.917000000     3.649000000
H     0.436000000    -2.239000000     3.878000000
O    -3.522000000    -0.862000000     3.659000000
H    -1.745000000    -0.648000000     2.613000000
C    -1.990000000     2.033000000     4.141000000
C    -3.504000000     1.902000000     4.066000000
H    -4.061000000     2.840000000     4.101000000
H    -3.682000000     1.145000000     4.833000000
C    -3.985000000     1.279000000     2.723000000
C    -4.439000000     1.976000000     1.645000000
H    -4.483000000     3.062000000     1.663000000
C    -4.041000000    -0.100000000     2.620000000
C    -4.397000000    -0.749000000     1.437000000
H    -4.303000000    -1.827000000     1.330000000
C    -4.625000000     0.007000000     0.293000000
O    -4.738000000    -0.623000000    -0.909000000
C    -3.575000000    -0.615000000    -1.770000000
C    -3.283000000    -1.990000000    -2.459000000
C    -3.586000000    -3.170000000    -1.814000000
H    -4.109000000    -3.156000000    -0.862000000
C    -2.502000000    -1.980000000    -3.661000000
H    -2.243000000    -1.014000000    -4.085000000
O    -3.699000000     0.422000000    -2.796000000
H    -2.676000000    -0.472000000    -1.153000000
C    -4.670000000     1.374000000     0.398000000
C    -4.921000000     2.269000000    -0.829000000
H    -5.384000000     3.216000000    -0.543000000
H    -5.540000000     1.703000000    -1.528000000
C    -3.666000000     2.604000000    -1.592000000
C    -3.253000000     1.735000000    -2.677000000
C    -2.113000000     2.058000000    -3.389000000
H    -1.712000000     1.362000000    -4.122000000
C    -1.377000000     3.248000000    -3.119000000
O    -0.137000000     3.416000000    -3.712000000
C     1.018000000     3.031000000    -2.982000000
H     0.707000000     2.314000000    -2.208000000
C     2.037000000     2.163000000    -3.777000000
C     3.410000000     2.140000000    -3.389000000
H     3.792000000     2.780000000    -2.596000000
C     1.574000000     1.421000000    -4.864000000
H     0.528000000     1.341000000    -5.153000000
C     2.431000000     0.613000000    -5.591000000
O     2.081000000    -0.134000000    -6.679000000
C     3.790000000     0.664000000    -5.301000000
H     4.529000000     0.119000000    -5.883000000
C     4.239000000     1.400000000    -4.177000000
O     5.560000000     1.274000000    -3.841000000
C     6.151000000     1.836000000    -2.752000000
C     6.291000000     1.158000000    -1.520000000
H     5.905000000     0.151000000    -1.390000000
C     6.646000000     3.158000000    -2.870000000
H     6.523000000     3.741000000    -3.779000000
C     7.336000000     3.761000000    -1.837000000
H     7.727000000     4.765000000    -1.974000000
C     7.470000000     3.138000000    -0.606000000
H     7.919000000     3.655000000     0.238000000
C     6.917000000     1.825000000    -0.457000000
O     7.076000000     1.119000000     0.761000000
C     6.083000000     0.823000000     1.600000000
C     6.062000000    -0.484000000     2.269000000
H     6.837000000    -1.218000000     2.063000000
C     5.006000000    -0.856000000     3.141000000
O     5.167000000    -1.934000000     3.928000000
C     4.086000000    -2.544000000     4.585000000
C     3.048000000    -3.186000000     3.855000000
H     2.974000000    -2.884000000     2.814000000
C     4.144000000    -2.733000000     5.947000000
H     5.002000000    -2.393000000     6.522000000
C     3.310000000    -3.560000000     6.686000000
H     3.476000000    -3.733000000     7.746000000
C     2.286000000    -4.214000000     5.992000000
H     1.517000000    -4.847000000     6.430000000
C     2.188000000    -4.072000000     4.543000000
O     1.217000000    -4.732000000     3.749000000
C     0.023000000    -4.235000000     3.336000000
C    -0.923000000    -5.106000000     3.079000000
H    -0.596000000    -6.134000000     2.939000000
C    -2.296000000    -4.742000000     2.949000000
O    -3.367000000    -5.677000000     2.808000000
C    -4.074000000    -5.873000000     1.644000000
C    -3.576000000    -5.550000000     0.347000000
H    -2.586000000    -5.113000000     0.250000000
C    -5.302000000    -6.525000000     1.801000000
H    -5.446000000    -6.803000000     2.842000000
C    -6.113000000    -6.770000000     0.701000000
H    -7.078000000    -7.248000000     0.849000000
C    -5.690000000    -6.373000000    -0.564000000
H    -6.335000000    -6.375000000    -1.438000000
C    -4.433000000    -5.746000000    -0.744000000
O    -4.043000000    -5.486000000    -2.041000000
C    -3.379000000    -4.370000000    -2.486000000
C    -2.716000000    -4.424000000    -3.678000000
H    -2.463000000    -5.393000000    -4.098000000
C    -2.198000000    -3.221000000    -4.217000000
O    -1.333000000    -3.264000000    -5.331000000
C    -0.910000000    -2.192000000    -6.110000000
C    -1.759000000    -1.634000000    -7.044000000
H    -2.755000000    -2.055000000    -7.157000000
C    -1.334000000    -0.643000000    -7.955000000
H    -2.020000000    -0.188000000    -8.664000000
C    -0.008000000    -0.174000000    -7.860000000
H     0.315000000     0.508000000    -8.642000000
C     0.829000000    -0.624000000    -6.814000000
C     0.419000000    -1.745000000    -6.026000000
H     1.150000000    -2.178000000    -5.348000000
C     2.047000000    -0.651000000    -0.077000000
H     3.122000000    -0.693000000    -0.233000000
C     1.352000000     0.505000000    -0.117000000
H     1.913000000     1.417000000    -0.305000000
C    -0.029000000     0.559000000     0.037000000
H    -0.630000000     1.441000000     0.050000000
C    -0.632000000    -0.654000000     0.410000000
H    -1.707000000    -0.667000000     0.574000000
C     0.042000000    -1.905000000     0.425000000
H    -0.469000000    -2.859000000     0.525000000
C     1.413000000    -1.895000000     0.058000000
C     2.067000000    -3.256000000    -0.032000000
O     1.441000000    -4.297000000     0.221000000
O     3.233000000    -3.316000000    -0.358000000
O     5.497000000    -2.271000000    -1.551000000
H     4.713000000    -2.417000000    -1.022000000
H     5.164000000    -2.114000000    -2.434000000
O     2.540000000    -6.388000000     1.335000000
H     1.984000000    -5.633000000     1.147000000
H     3.356000000    -6.009000000     1.662000000
O     1.715000000    -3.545000000    -3.213000000
H     1.095000000    -2.877000000    -2.924000000
H     2.069000000    -3.911000000    -2.402000000
O     6.279000000    -7.736000000    -2.732000000
H     7.211000000    -7.920000000    -2.613000000
H     6.063000000    -7.129000000    -2.024000000
O     4.165000000    -4.310000000    -4.544000000
H     4.409000000    -5.236000000    -4.549000000
H     3.420000000    -4.262000000    -3.945000000
O    -1.484000000    -7.861000000     1.088000000
H    -2.426000000    -7.967000000     0.956000000
H    -1.213000000    -7.252000000     0.401000000
O     0.754000000    -5.566000000    -4.589000000
H     1.050000000    -4.803000000    -4.093000000
H     1.110000000    -5.434000000    -5.467000000
O     1.283000000    -8.725000000     0.874000000
H     1.723000000    -7.907000000     1.107000000
H     0.377000000    -8.468000000     0.701000000
O     4.487000000    -8.670000000     1.860000000
H     4.895000000    -8.499000000     2.709000000
H     4.100000000    -7.832000000     1.607000000
O     7.550000000    -3.108000000    -0.192000000
H     8.298000000    -3.025000000    -0.784000000
H     6.832000000    -2.671000000    -0.649000000
O     1.645000000    -7.541000000    -2.610000000
H     1.151000000    -7.157000000    -3.335000000
H     2.312000000    -6.887000000    -2.402000000
O     7.325000000    -4.510000000     1.994000000
H     7.497000000    -4.089000000     1.152000000
H     8.169000000    -4.494000000     2.446000000
O     0.030000000    -6.457000000    -0.556000000
H     0.701000000    -6.804000000    -1.144000000
H     0.373000000    -5.609000000    -0.275000000
O     3.343000000    -5.619000000    -1.678000000
H     3.931000000    -6.227000000    -1.231000000
H     3.233000000    -4.894000000    -1.063000000
O     6.790000000    -3.421000000    -4.208000000
H     5.965000000    -3.830000000    -3.947000000
H     6.539000000    -2.552000000    -4.520000000
O     5.515000000    -5.627000000     4.291000000
H     4.782000000    -5.054000000     4.064000000
H     6.245000000    -5.304000000     3.763000000
O     4.783000000    -4.878000000     1.474000000
H     4.692000000    -4.270000000     0.740000000
H     5.704000000    -4.812000000     1.726000000
O     6.043000000    -5.464000000    -1.322000000
H     6.098000000    -4.517000000    -1.193000000
H     6.824000000    -5.683000000    -1.830000000
O     3.160000000    -7.059000000     4.668000000
H     2.394000000    -6.511000000     4.499000000
H     2.871000000    -7.946000000     4.454000000
