215
-1459.05791
C     4.065000000     0.362000000     2.952000000
H     3.269000000     0.193000000     3.673000000
C     4.018000000     1.557000000     2.211000000
C     5.071000000     1.749000000     1.251000000
H     5.090000000     2.640000000     0.628000000
C     2.780000000     2.486000000     2.249000000
O     2.257000000     2.673000000     3.625000000
H     2.039000000     1.958000000     1.632000000
O     2.984000000     3.815000000     1.701000000
C     1.958000000     4.307000000     0.840000000
C     2.189000000     4.008000000    -0.524000000
H     3.133000000     3.597000000    -0.872000000
C     1.094000000     4.071000000    -1.358000000
O     1.339000000     3.693000000    -2.661000000
C    -0.114000000     4.648000000    -0.984000000
C    -1.303000000     4.935000000    -1.927000000
H    -1.929000000     5.742000000    -1.542000000
C    -2.090000000     3.705000000    -2.239000000
C    -3.289000000     3.494000000    -1.502000000
H    -3.632000000     4.195000000    -0.745000000
H    -0.798000000     5.368000000    -2.793000000
C    -0.303000000     5.016000000     0.351000000
H    -1.251000000     5.494000000     0.586000000
C     0.726000000     4.814000000     1.318000000
C     0.535000000     5.042000000     2.821000000
H    -0.169000000     5.865000000     2.954000000
H     1.451000000     5.429000000     3.274000000
C     0.048000000     3.628000000     3.308000000
C    -1.322000000     3.469000000     3.314000000
H    -2.004000000     4.164000000     2.832000000
C     0.864000000     2.613000000     3.754000000
C     0.337000000     1.444000000     4.283000000
H     0.951000000     0.614000000     4.622000000
C    -1.025000000     1.291000000     4.291000000
O    -1.506000000     0.048000000     4.757000000
C    -1.939000000    -0.888000000     3.737000000
C    -1.458000000    -2.376000000     4.009000000
C    -2.356000000    -3.430000000     3.778000000
H    -3.368000000    -3.399000000     3.383000000
C    -0.077000000    -2.680000000     4.242000000
H     0.709000000    -1.941000000     4.112000000
O    -3.345000000    -0.729000000     3.731000000
H    -1.468000000    -0.514000000     2.816000000
C    -1.863000000     2.277000000     3.720000000
C    -3.378000000     2.063000000     3.777000000
H    -3.789000000     3.070000000     3.867000000
H    -3.811000000     1.655000000     4.692000000
C    -3.970000000     1.274000000     2.612000000
C    -4.453000000     1.965000000     1.512000000
H    -4.472000000     3.051000000     1.488000000
C    -3.849000000    -0.111000000     2.602000000
C    -4.084000000    -0.833000000     1.453000000
H    -3.965000000    -1.911000000     1.374000000
C    -4.669000000    -0.203000000     0.388000000
O    -4.820000000    -0.958000000    -0.775000000
C    -3.711000000    -0.819000000    -1.680000000
C    -3.301000000    -2.193000000    -2.241000000
C    -3.385000000    -3.284000000    -1.397000000
H    -3.796000000    -3.193000000    -0.394000000
C    -2.736000000    -2.322000000    -3.486000000
H    -2.675000000    -1.468000000    -4.155000000
O    -4.065000000     0.074000000    -2.714000000
H    -2.864000000    -0.404000000    -1.115000000
C    -4.767000000     1.187000000     0.358000000
C    -5.200000000     1.936000000    -0.861000000
H    -5.716000000     2.796000000    -0.428000000
H    -6.000000000     1.338000000    -1.303000000
C    -4.015000000     2.286000000    -1.698000000
C    -3.517000000     1.359000000    -2.629000000
C    -2.391000000     1.622000000    -3.421000000
H    -2.033000000     0.892000000    -4.143000000
C    -1.653000000     2.785000000    -3.166000000
O    -0.487000000     2.868000000    -3.861000000
C     0.749000000     2.530000000    -3.180000000
H     0.538000000     2.021000000    -2.228000000
C     1.750000000     1.750000000    -4.014000000
C     3.130000000     1.685000000    -3.780000000
H     3.577000000     2.229000000    -2.952000000
C     1.238000000     0.996000000    -5.129000000
H     0.188000000     1.082000000    -5.399000000
C     2.064000000     0.189000000    -5.938000000
O     1.585000000    -0.586000000    -6.969000000
C     3.430000000     0.200000000    -5.644000000
H     4.134000000    -0.345000000    -6.267000000
C     3.962000000     0.825000000    -4.560000000
O     5.308000000     0.657000000    -4.296000000
C     6.016000000     1.295000000    -3.272000000
C     6.226000000     0.671000000    -2.002000000
H     5.783000000    -0.317000000    -1.907000000
C     6.605000000     2.478000000    -3.572000000
H     6.418000000     2.933000000    -4.541000000
C     7.330000000     3.204000000    -2.634000000
H     7.694000000     4.199000000    -2.876000000
C     7.527000000     2.639000000    -1.397000000
H     8.089000000     3.116000000    -0.598000000
C     6.917000000     1.421000000    -1.032000000
O     7.161000000     0.971000000     0.233000000
C     6.187000000     0.918000000     1.232000000
C     6.178000000    -0.193000000     2.058000000
H     7.088000000    -0.786000000     2.017000000
C     5.190000000    -0.467000000     2.939000000
O     5.383000000    -1.557000000     3.737000000
C     4.428000000    -2.014000000     4.654000000
C     3.551000000    -3.047000000     4.375000000
H     3.498000000    -3.618000000     3.452000000
C     4.266000000    -1.299000000     5.845000000
H     5.013000000    -0.534000000     6.041000000
C     3.225000000    -1.626000000     6.719000000
H     2.907000000    -1.172000000     7.654000000
C     2.300000000    -2.611000000     6.396000000
H     1.442000000    -2.863000000     7.014000000
C     2.523000000    -3.314000000     5.209000000
O     1.646000000    -4.277000000     4.805000000
C     0.336000000    -4.000000000     4.551000000
C    -0.615000000    -5.027000000     4.444000000
H    -0.355000000    -6.067000000     4.624000000
C    -1.850000000    -4.749000000     3.935000000
O    -2.620000000    -5.804000000     3.630000000
C    -3.410000000    -5.718000000     2.522000000
C    -2.886000000    -5.892000000     1.250000000
H    -1.806000000    -5.973000000     1.158000000
C    -4.784000000    -5.755000000     2.633000000
H    -5.196000000    -5.834000000     3.636000000
C    -5.588000000    -5.742000000     1.521000000
H    -6.667000000    -5.666000000     1.629000000
C    -5.012000000    -5.688000000     0.282000000
H    -5.680000000    -5.517000000    -0.559000000
C    -3.652000000    -5.687000000     0.098000000
O    -3.035000000    -5.654000000    -1.084000000
C    -2.892000000    -4.510000000    -1.835000000
C    -2.259000000    -4.586000000    -3.077000000
H    -2.070000000    -5.554000000    -3.534000000
C    -2.053000000    -3.464000000    -3.867000000
O    -1.529000000    -3.633000000    -5.108000000
C    -1.238000000    -2.639000000    -6.064000000
C    -2.207000000    -2.321000000    -6.990000000
H    -3.229000000    -2.684000000    -7.059000000
C    -1.931000000    -1.240000000    -7.827000000
H    -2.630000000    -0.961000000    -8.611000000
C    -0.702000000    -0.638000000    -7.822000000
H    -0.481000000     0.169000000    -8.516000000
C     0.301000000    -1.108000000    -7.006000000
C    -0.021000000    -2.080000000    -6.043000000
H     0.779000000    -2.270000000    -5.332000000
C     2.290000000    -1.961000000     0.225000000
H     3.291000000    -2.383000000     0.258000000
C     1.953000000    -0.639000000    -0.166000000
H     2.741000000     0.096000000    -0.312000000
C     0.654000000    -0.208000000    -0.102000000
H     0.429000000     0.792000000    -0.417000000
C    -0.403000000    -1.069000000     0.174000000
H    -1.447000000    -0.767000000     0.171000000
C    -0.050000000    -2.382000000     0.496000000
H    -0.770000000    -3.149000000     0.770000000
C     1.252000000    -2.853000000     0.534000000
C     1.588000000    -4.323000000     0.961000000
O     0.661000000    -5.069000000     1.111000000
O     2.648000000    -4.806000000     1.194000000
O     5.144000000    -3.926000000     0.893000000
H     5.531000000    -4.799000000     0.964000000
H     4.212000000    -4.063000000     1.061000000
O     3.577000000    -6.628000000     2.873000000
H     3.404000000    -5.832000000     2.370000000
H     2.715000000    -7.025000000     2.998000000
O     3.405000000    -9.626000000    -1.297000000
H     2.625000000    -9.261000000    -1.715000000
H     3.398000000    -9.259000000    -0.413000000
O    -0.235000000    -6.143000000    -1.069000000
H    -1.183000000    -6.182000000    -0.946000000
H     0.102000000    -5.817000000    -0.234000000
O     2.521000000    -2.712000000    -2.841000000
H     3.422000000    -2.493000000    -2.605000000
H     1.990000000    -2.049000000    -2.400000000
O     0.105000000    -5.704000000    -5.925000000
H    -0.455000000    -4.927000000    -5.932000000
H     0.677000000    -5.579000000    -5.167000000
O     8.511000000    -3.544000000     2.007000000
H     8.993000000    -4.304000000     1.683000000
H     7.590000000    -3.777000000     1.891000000
O    -2.102000000    -8.473000000     4.623000000
H    -1.734000000    -7.682000000     5.017000000
H    -2.650000000    -8.151000000     3.907000000
O     5.549000000    -6.566000000    -1.870000000
H     4.617000000    -6.474000000    -1.673000000
H     5.608000000    -7.372000000    -2.382000000
O     6.649000000    -2.721000000    -1.029000000
H     6.107000000    -2.970000000    -0.280000000
H     6.021000000    -2.463000000    -1.704000000
O     1.632000000    -5.144000000    -3.430000000
H     1.896000000    -4.259000000    -3.178000000
H     1.053000000    -5.432000000    -2.724000000
O     1.037000000    -7.353000000     2.851000000
H     0.852000000    -7.941000000     2.119000000
H     0.750000000    -6.492000000     2.546000000
O     3.133000000    -6.723000000    -0.670000000
H     2.372000000    -6.731000000    -1.251000000
H     2.909000000    -6.087000000     0.009000000
O    -0.358000000    -9.112000000     0.985000000
H    -1.243000000    -9.381000000     1.233000000
H     0.006000000    -9.874000000     0.534000000
O     4.748000000    -5.374000000    -4.230000000
H     5.056000000    -6.044000000    -3.619000000
H     3.864000000    -5.165000000    -3.930000000
O     0.512000000    -9.098000000     4.887000000
H     0.740000000    -8.557000000     4.131000000
H    -0.445000000    -9.095000000     4.904000000
O     6.091000000    -6.686000000     1.377000000
H     5.325000000    -6.983000000     1.868000000
H     6.018000000    -7.127000000     0.531000000
O     1.176000000    -8.307000000    -2.436000000
H     0.347000000    -8.031000000    -2.045000000
H     1.096000000    -8.070000000    -3.359000000
O     5.505000000    -7.477000000     4.672000000
H     5.096000000    -8.282000000     4.990000000
H     4.844000000    -7.081000000     4.104000000
