215
-1478.95773
C     3.750000000     0.469000000     2.899000000
H     2.914000000     0.211000000     3.544000000
C     3.790000000     1.576000000     2.044000000
C     4.902000000     1.874000000     1.275000000
H     4.921000000     2.778000000     0.671000000
C     2.595000000     2.542000000     2.007000000
O     2.152000000     2.869000000     3.383000000
H     1.787000000     1.949000000     1.555000000
O     2.917000000     3.778000000     1.401000000
C     1.983000000     4.157000000     0.437000000
C     2.245000000     3.799000000    -0.858000000
H     3.179000000     3.317000000    -1.135000000
C     1.202000000     4.014000000    -1.759000000
O     1.310000000     3.507000000    -3.037000000
C    -0.025000000     4.572000000    -1.436000000
C    -1.202000000     4.789000000    -2.425000000
H    -1.839000000     5.611000000    -2.092000000
C    -2.072000000     3.516000000    -2.440000000
C    -3.221000000     3.394000000    -1.653000000
H    -3.447000000     4.185000000    -0.943000000
H    -0.900000000     5.036000000    -3.445000000
C    -0.286000000     4.862000000    -0.106000000
H    -1.288000000     5.221000000     0.119000000
C     0.752000000     4.688000000     0.830000000
C     0.486000000     4.967000000     2.293000000
H    -0.233000000     5.778000000     2.424000000
H     1.405000000     5.340000000     2.749000000
C    -0.033000000     3.732000000     2.976000000
C    -1.387000000     3.513000000     2.927000000
H    -2.049000000     4.222000000     2.437000000
C     0.825000000     2.848000000     3.559000000
C     0.353000000     1.663000000     4.095000000
H     0.996000000     0.866000000     4.461000000
C    -1.050000000     1.471000000     4.183000000
O    -1.474000000     0.332000000     4.745000000
C    -1.750000000    -0.728000000     3.823000000
C    -1.084000000    -2.013000000     4.185000000
C    -1.391000000    -3.156000000     3.449000000
H    -2.119000000    -3.082000000     2.644000000
C    -0.165000000    -2.077000000     5.209000000
H     0.164000000    -1.225000000     5.800000000
O    -3.215000000    -0.799000000     3.629000000
H    -1.253000000    -0.451000000     2.881000000
C    -1.864000000     2.413000000     3.619000000
C    -3.320000000     2.180000000     3.776000000
H    -3.959000000     3.066000000     3.782000000
H    -3.428000000     1.678000000     4.740000000
C    -3.882000000     1.344000000     2.631000000
C    -4.486000000     1.964000000     1.562000000
H    -4.688000000     3.025000000     1.685000000
C    -3.853000000    -0.048000000     2.651000000
C    -4.308000000    -0.812000000     1.583000000
H    -4.387000000    -1.893000000     1.669000000
C    -4.715000000    -0.174000000     0.435000000
O    -5.051000000    -0.881000000    -0.751000000
C    -3.970000000    -0.959000000    -1.788000000
C    -3.648000000    -2.280000000    -2.408000000
C    -3.576000000    -3.372000000    -1.584000000
H    -3.908000000    -3.361000000    -0.548000000
C    -3.165000000    -2.331000000    -3.745000000
H    -3.336000000    -1.477000000    -4.396000000
O    -4.370000000     0.032000000    -2.776000000
H    -3.064000000    -0.546000000    -1.321000000
C    -4.840000000     1.265000000     0.429000000
C    -5.267000000     2.037000000    -0.822000000
H    -5.615000000     3.050000000    -0.612000000
H    -6.101000000     1.516000000    -1.297000000
C    -4.059000000     2.259000000    -1.736000000
C    -3.660000000     1.241000000    -2.638000000
C    -2.464000000     1.322000000    -3.322000000
H    -2.135000000     0.453000000    -3.887000000
C    -1.697000000     2.446000000    -3.256000000
O    -0.550000000     2.470000000    -4.031000000
C     0.686000000     2.228000000    -3.333000000
H     0.556000000     1.728000000    -2.361000000
C     1.619000000     1.350000000    -4.179000000
C     2.843000000     0.977000000    -3.643000000
H     3.206000000     1.420000000    -2.719000000
C     1.235000000     0.676000000    -5.330000000
H     0.203000000     0.798000000    -5.648000000
C     2.057000000    -0.355000000    -5.922000000
O     1.588000000    -1.183000000    -6.960000000
C     3.300000000    -0.576000000    -5.381000000
H     3.880000000    -1.346000000    -5.883000000
C     3.693000000     0.082000000    -4.279000000
O     5.019000000    -0.171000000    -3.731000000
C     5.630000000     0.836000000    -2.934000000
C     6.123000000     0.478000000    -1.713000000
H     5.846000000    -0.468000000    -1.255000000
C     5.782000000     2.179000000    -3.360000000
H     5.514000000     2.513000000    -4.359000000
C     6.265000000     3.201000000    -2.537000000
H     6.242000000     4.242000000    -2.850000000
C     6.736000000     2.825000000    -1.269000000
H     7.031000000     3.593000000    -0.559000000
C     6.709000000     1.459000000    -0.862000000
O     7.028000000     1.080000000     0.388000000
C     6.010000000     0.968000000     1.339000000
C     6.005000000    -0.159000000     2.158000000
H     6.831000000    -0.854000000     2.035000000
C     4.841000000    -0.398000000     2.917000000
O     4.748000000    -1.630000000     3.618000000
C     4.195000000    -1.734000000     4.856000000
C     3.113000000    -2.567000000     5.005000000
H     2.716000000    -3.117000000     4.156000000
C     4.795000000    -1.027000000     5.915000000
H     5.552000000    -0.266000000     5.742000000
C     4.103000000    -1.105000000     7.169000000
H     4.343000000    -0.399000000     7.960000000
C     3.041000000    -1.971000000     7.371000000
H     2.487000000    -1.856000000     8.298000000
C     2.537000000    -2.672000000     6.240000000
O     1.414000000    -3.403000000     6.427000000
C     0.359000000    -3.337000000     5.566000000
C    -0.007000000    -4.468000000     4.888000000
H     0.356000000    -5.462000000     5.135000000
C    -0.849000000    -4.427000000     3.779000000
O    -1.172000000    -5.547000000     3.014000000
C    -2.256000000    -5.600000000     2.225000000
C    -2.076000000    -5.533000000     0.872000000
H    -1.111000000    -5.439000000     0.381000000
C    -3.562000000    -5.831000000     2.766000000
H    -3.757000000    -5.810000000     3.835000000
C    -4.610000000    -5.991000000     1.897000000
H    -5.603000000    -6.186000000     2.294000000
C    -4.424000000    -6.006000000     0.504000000
H    -5.224000000    -6.296000000    -0.173000000
C    -3.148000000    -5.699000000    -0.018000000
O    -2.928000000    -5.742000000    -1.352000000
C    -3.030000000    -4.598000000    -2.102000000
C    -2.495000000    -4.695000000    -3.447000000
H    -1.996000000    -5.593000000    -3.802000000
C    -2.663000000    -3.559000000    -4.245000000
O    -2.166000000    -3.678000000    -5.552000000
C    -1.719000000    -2.607000000    -6.228000000
C    -2.513000000    -1.956000000    -7.200000000
H    -3.508000000    -2.363000000    -7.360000000
C    -1.980000000    -0.930000000    -7.972000000
H    -2.625000000    -0.293000000    -8.572000000
C    -0.605000000    -0.700000000    -7.814000000
H    -0.133000000     0.065000000    -8.424000000
C     0.263000000    -1.384000000    -6.919000000
C    -0.345000000    -2.353000000    -6.115000000
H     0.202000000    -2.968000000    -5.405000000
C     1.535000000    -0.869000000    -0.596000000
H     2.547000000    -0.672000000    -0.939000000
C     0.651000000     0.152000000    -0.392000000
H     0.992000000     1.167000000    -0.579000000
C    -0.716000000    -0.126000000    -0.056000000
H    -1.438000000     0.701000000     0.066000000
C    -0.985000000    -1.436000000     0.228000000
H    -1.983000000    -1.748000000     0.522000000
C    -0.031000000    -2.450000000     0.081000000
H    -0.336000000    -3.424000000     0.455000000
C     1.278000000    -2.215000000    -0.336000000
C     2.342000000    -3.339000000    -0.565000000
O     1.989000000    -4.402000000    -0.171000000
O     3.204000000    -3.178000000    -1.343000000
O     5.483000000    -4.208000000    -2.020000000
H     4.690000000    -3.696000000    -1.863000000
H     5.962000000    -4.167000000    -1.192000000
O     2.066000000    -5.740000000     2.257000000
H     2.861000000    -5.962000000     1.771000000
H     1.713000000    -4.976000000     1.801000000
O     3.796000000    -8.726000000     0.071000000
H     4.018000000    -7.815000000     0.260000000
H     3.218000000    -8.679000000    -0.690000000
O     2.257000000    -4.457000000    -3.937000000
H     1.458000000    -4.954000000    -3.762000000
H     2.480000000    -4.058000000    -3.095000000
O     5.544000000    -6.709000000    -2.612000000
H     5.263000000    -5.800000000    -2.511000000
H     4.728000000    -7.208000000    -2.654000000
O     3.189000000    -5.584000000    -6.097000000
H     3.761000000    -4.931000000    -6.501000000
H     2.812000000    -5.137000000    -5.340000000
O    -0.483000000    -8.281000000    -0.557000000
H    -0.051000000    -8.921000000    -1.123000000
H    -0.062000000    -7.449000000    -0.771000000
O     8.747000000    -2.597000000     1.007000000
H     8.353000000    -2.561000000     1.878000000
H     9.685000000    -2.487000000     1.162000000
O     0.519000000    -8.145000000     2.131000000
H     0.095000000    -8.224000000     1.276000000
H     0.738000000    -7.217000000     2.205000000
O     7.638000000    -3.581000000     3.355000000
H     6.737000000    -3.886000000     3.458000000
H     8.175000000    -4.328000000     3.621000000
O     2.958000000    -7.779000000    -3.446000000
H     2.496000000    -8.396000000    -2.879000000
H     2.824000000    -8.120000000    -4.330000000
O     0.726000000    -5.985000000    -1.928000000
H     1.479000000    -6.106000000    -2.506000000
H     1.052000000    -5.423000000    -1.225000000
O     4.028000000    -6.031000000     0.217000000
H     3.381000000    -5.354000000     0.021000000
H     4.862000000    -5.655000000    -0.066000000
O     6.217000000    -3.204000000    -4.383000000
H     6.466000000    -2.378000000    -3.970000000
H     5.889000000    -3.743000000    -3.663000000
O     5.260000000    -3.752000000    -6.763000000
H     5.628000000    -3.576000000    -5.897000000
H     5.925000000    -3.435000000    -7.375000000
O     8.241000000    -6.992000000    -1.663000000
H     8.679000000    -6.176000000    -1.423000000
H     7.420000000    -6.712000000    -2.070000000
O     5.423000000    -5.051000000     3.488000000
H     5.386000000    -5.963000000     3.200000000
H     4.895000000    -5.030000000     4.286000000
O     6.417000000    -4.158000000     0.637000000
H     7.271000000    -3.777000000     0.841000000
H     5.994000000    -4.266000000     1.489000000
O     3.272000000    -6.508000000     4.657000000
H     2.593000000    -6.347000000     4.001000000
H     3.308000000    -7.461000000     4.737000000
