215
-1445.39329
C     4.902000000    -1.481000000    -2.478000000
H     4.653000000    -2.532000000    -2.359000000
C     4.684000000    -0.607000000    -1.418000000
C     4.732000000     0.840000000    -1.632000000
H     4.440000000     1.526000000    -0.842000000
C     4.267000000    -1.187000000    -0.029000000
O     4.522000000    -2.630000000     0.206000000
H     3.206000000    -0.912000000     0.067000000
O     4.989000000    -0.496000000     0.943000000
C     4.218000000    -0.195000000     2.064000000
C     3.723000000     1.123000000     2.177000000
H     4.085000000     1.874000000     1.480000000
C     2.808000000     1.541000000     3.183000000
O     2.442000000     2.845000000     3.156000000
C     2.497000000     0.667000000     4.229000000
C     1.452000000     1.057000000     5.271000000
H     1.562000000     0.385000000     6.125000000
C     0.053000000     1.020000000     4.743000000
C    -0.703000000    -0.079000000     5.034000000
H    -0.213000000    -0.943000000     5.476000000
H     1.571000000     2.090000000     5.606000000
C     3.007000000    -0.636000000     4.192000000
H     2.730000000    -1.229000000     5.060000000
C     3.720000000    -1.144000000     3.027000000
C     4.088000000    -2.618000000     2.997000000
H     3.899000000    -3.028000000     3.992000000
H     5.109000000    -2.918000000     2.756000000
C     3.128000000    -3.288000000     2.012000000
C     1.984000000    -3.919000000     2.467000000
H     1.740000000    -4.124000000     3.506000000
C     3.381000000    -3.226000000     0.653000000
C     2.483000000    -3.712000000    -0.278000000
H     2.585000000    -3.705000000    -1.361000000
C     1.277000000    -4.308000000     0.130000000
O     0.386000000    -4.710000000    -0.759000000
C    -0.737000000    -3.892000000    -0.977000000
C    -1.124000000    -3.741000000    -2.483000000
C    -2.450000000    -3.815000000    -2.864000000
H    -3.260000000    -3.913000000    -2.146000000
C    -0.094000000    -3.450000000    -3.435000000
H     0.928000000    -3.254000000    -3.123000000
O    -1.845000000    -4.470000000    -0.164000000
H    -0.584000000    -2.889000000    -0.552000000
C     1.043000000    -4.378000000     1.503000000
C    -0.229000000    -5.060000000     1.976000000
H    -0.104000000    -5.552000000     2.943000000
H    -0.554000000    -5.842000000     1.286000000
C    -1.329000000    -4.075000000     2.149000000
C    -1.510000000    -3.353000000     3.331000000
H    -0.758000000    -3.373000000     4.116000000
C    -2.164000000    -3.851000000     1.015000000
C    -3.283000000    -3.017000000     1.078000000
H    -3.881000000    -2.839000000     0.188000000
C    -3.408000000    -2.297000000     2.238000000
O    -4.273000000    -1.276000000     2.272000000
C    -3.786000000     0.146000000     1.997000000
C    -4.649000000     0.947000000     0.944000000
C    -4.922000000     0.307000000    -0.289000000
H    -4.552000000    -0.702000000    -0.455000000
C    -4.997000000     2.278000000     1.011000000
H    -4.726000000     2.884000000     1.872000000
O    -3.838000000     0.773000000     3.317000000
H    -2.736000000     0.172000000     1.668000000
C    -2.502000000    -2.352000000     3.311000000
C    -2.685000000    -1.531000000     4.573000000
H    -2.291000000    -2.026000000     5.463000000
H    -3.713000000    -1.301000000     4.861000000
C    -2.011000000    -0.186000000     4.547000000
C    -2.607000000     0.862000000     3.882000000
C    -1.823000000     2.012000000     3.651000000
H    -2.146000000     2.883000000     3.085000000
C    -0.568000000     2.140000000     4.228000000
O     0.202000000     3.291000000     3.848000000
C     1.104000000     3.086000000     2.709000000
H     0.699000000     2.199000000     2.198000000
C     0.997000000     4.218000000     1.762000000
C     2.146000000     4.727000000     1.069000000
H     3.114000000     4.346000000     1.384000000
C    -0.293000000     4.735000000     1.520000000
H    -1.152000000     4.421000000     2.107000000
C    -0.461000000     5.611000000     0.443000000
O    -1.607000000     6.172000000     0.034000000
C     0.646000000     6.113000000    -0.247000000
H     0.583000000     6.910000000    -0.983000000
C     1.898000000     5.599000000    -0.044000000
O     2.967000000     6.180000000    -0.717000000
C     4.096000000     5.276000000    -0.944000000
C     4.014000000     4.252000000    -1.897000000
H     3.089000000     4.098000000    -2.446000000
C     5.253000000     5.319000000    -0.167000000
H     5.279000000     6.157000000     0.524000000
C     6.334000000     4.544000000    -0.424000000
H     7.285000000     4.715000000     0.073000000
C     6.236000000     3.637000000    -1.450000000
H     7.120000000     3.019000000    -1.584000000
C     5.145000000     3.569000000    -2.244000000
O     5.157000000     2.560000000    -3.235000000
C     5.114000000     1.268000000    -2.885000000
C     5.452000000     0.384000000    -3.951000000
H     5.733000000     0.841000000    -4.896000000
C     5.163000000    -0.983000000    -3.730000000
O     5.210000000    -1.948000000    -4.721000000
C     4.166000000    -2.813000000    -4.991000000
C     2.848000000    -2.355000000    -5.193000000
H     2.646000000    -1.323000000    -4.916000000
C     4.506000000    -4.131000000    -5.188000000
H     5.567000000    -4.330000000    -5.059000000
C     3.483000000    -4.990000000    -5.494000000
H     3.731000000    -6.039000000    -5.631000000
C     2.109000000    -4.666000000    -5.706000000
H     1.331000000    -5.396000000    -5.912000000
C     1.807000000    -3.300000000    -5.591000000
O     0.534000000    -2.857000000    -5.719000000
C    -0.397000000    -3.186000000    -4.752000000
C    -1.720000000    -3.236000000    -5.143000000
H    -1.978000000    -2.925000000    -6.152000000
C    -2.736000000    -3.676000000    -4.251000000
O    -4.074000000    -3.530000000    -4.693000000
C    -5.076000000    -2.915000000    -3.958000000
C    -4.923000000    -1.591000000    -3.553000000
H    -4.088000000    -1.082000000    -4.029000000
C    -6.178000000    -3.629000000    -3.511000000
H    -6.264000000    -4.694000000    -3.709000000
C    -7.128000000    -3.007000000    -2.696000000
H    -7.938000000    -3.702000000    -2.487000000
C    -7.054000000    -1.646000000    -2.357000000
H    -7.826000000    -1.137000000    -1.786000000
C    -5.871000000    -0.961000000    -2.789000000
O    -5.695000000     0.404000000    -2.626000000
C    -5.565000000     0.942000000    -1.339000000
C    -5.935000000     2.319000000    -1.167000000
H    -6.302000000     2.908000000    -2.004000000
C    -5.692000000     2.904000000     0.060000000
O    -5.852000000     4.259000000     0.193000000
C    -5.006000000     5.114000000     0.801000000
C    -5.221000000     5.816000000     1.990000000
H    -6.182000000     5.776000000     2.496000000
C    -4.243000000     6.644000000     2.496000000
H    -4.458000000     7.134000000     3.442000000
C    -2.972000000     6.775000000     1.935000000
H    -2.163000000     7.409000000     2.289000000
C    -2.778000000     6.143000000     0.705000000
C    -3.761000000     5.315000000     0.131000000
H    -3.481000000     4.608000000    -0.646000000
C    -0.782000000    -0.246000000    -2.993000000
H    -1.508000000    -0.437000000    -3.779000000
C    -0.967000000    -0.440000000    -1.601000000
H    -1.860000000    -0.847000000    -1.134000000
C     0.011000000    -0.140000000    -0.657000000
H    -0.097000000    -0.388000000     0.452000000
C     1.214000000     0.417000000    -1.137000000
H     1.998000000     0.671000000    -0.428000000
C     1.386000000     0.692000000    -2.528000000
H     2.270000000     1.156000000    -2.958000000
C     0.470000000     0.260000000    -3.454000000
C     0.670000000     0.567000000    -4.906000000
O     1.697000000     1.056000000    -5.323000000
O    -0.273000000     0.493000000    -5.684000000
O     2.239000000     5.782000000    -4.766000000
H     2.200000000     6.017000000    -5.693000000
H     2.366000000     4.834000000    -4.764000000
O     2.897000000     0.118000000    -7.613000000
H     3.813000000     0.393000000    -7.626000000
H     2.635000000     0.199000000    -6.696000000
O    -2.230000000    -0.580000000    -9.138000000
H    -1.332000000    -0.337000000    -8.912000000
H    -2.174000000    -0.889000000   -10.042000000
O    -0.438000000    -2.952000000    -9.045000000
H    -0.194000000    -2.880000000    -8.122000000
H    -0.278000000    -3.870000000    -9.265000000
O    -0.222000000     0.755000000   -11.374000000
H    -1.128000000     0.588000000   -11.636000000
H    -0.234000000     0.693000000   -10.419000000
O    -1.927000000     2.613000000    -2.457000000
H    -2.611000000     2.408000000    -3.094000000
H    -1.368000000     1.836000000    -2.448000000
O    -3.668000000     1.910000000    -4.493000000
H    -3.140000000     1.665000000    -5.253000000
H    -4.534000000     1.547000000    -4.676000000
O     0.346000000     0.433000000    -8.300000000
H     1.232000000     0.071000000    -8.285000000
H     0.151000000     0.628000000    -7.383000000
O     2.948000000     3.388000000    -5.935000000
H     2.991000000     3.409000000    -6.891000000
H     2.506000000     2.564000000    -5.733000000
O     2.712000000     3.111000000    -8.884000000
H     2.402000000     2.209000000    -8.812000000
H     1.924000000     3.645000000    -8.782000000
O     4.541000000    -2.113000000    -8.326000000
H     3.710000000    -1.679000000    -8.133000000
H     5.159000000    -1.738000000    -7.697000000
O    -0.501000000     3.148000000    -6.633000000
H    -0.533000000     3.776000000    -5.911000000
H    -0.093000000     2.369000000    -6.256000000
O    -0.045000000     4.454000000    -9.158000000
H    -0.139000000     3.610000000    -8.718000000
H     0.521000000     4.965000000    -8.579000000
O    -3.148000000     3.880000000    -7.270000000
H    -2.256000000     3.672000000    -6.993000000
H    -3.349000000     4.707000000    -6.832000000
O     5.631000000     3.630000000    -6.019000000
H     5.677000000     2.877000000    -6.609000000
H     4.731000000     3.624000000    -5.693000000
O    -2.981000000    -0.122000000    -6.404000000
H    -2.531000000    -0.364000000    -7.213000000
H    -2.278000000     0.118000000    -5.801000000
O     5.326000000     1.168000000    -7.943000000
H     6.070000000     0.805000000    -7.463000000
H     5.722000000     1.723000000    -8.615000000
O    -1.499000000     4.929000000    -4.419000000
H    -1.348000000     4.236000000    -3.776000000
H    -1.644000000     5.716000000    -3.895000000
O    -2.430000000     2.264000000    -9.613000000
H    -2.333000000     1.414000000    -9.183000000
H    -2.546000000     2.884000000    -8.893000000
