215
-1446.61842
C     4.476000000     0.591000000     3.960000000
H     3.714000000     0.556000000     4.735000000
C     4.257000000     1.485000000     2.889000000
C     5.256000000     1.673000000     1.901000000
H     5.091000000     2.410000000     1.119000000
C     3.015000000     2.326000000     2.988000000
O     2.397000000     2.549000000     4.258000000
H     2.208000000     1.853000000     2.409000000
O     3.318000000     3.580000000     2.263000000
C     2.314000000     4.052000000     1.350000000
C     2.466000000     3.645000000     0.007000000
H     3.432000000     3.220000000    -0.255000000
C     1.500000000     3.919000000    -0.953000000
O     1.680000000     3.521000000    -2.266000000
C     0.318000000     4.582000000    -0.544000000
C    -0.634000000     5.033000000    -1.646000000
H    -1.176000000     5.921000000    -1.314000000
C    -1.739000000     3.941000000    -2.040000000
C    -2.921000000     3.870000000    -1.325000000
H    -3.158000000     4.759000000    -0.745000000
H    -0.133000000     5.440000000    -2.528000000
C     0.081000000     4.919000000     0.812000000
H    -0.857000000     5.255000000     1.247000000
C     1.104000000     4.657000000     1.779000000
C     0.925000000     4.865000000     3.226000000
H     0.224000000     5.697000000     3.317000000
H     1.836000000     4.977000000     3.818000000
C     0.281000000     3.618000000     3.821000000
C    -1.076000000     3.457000000     3.750000000
H    -1.664000000     4.242000000     3.280000000
C     1.052000000     2.589000000     4.264000000
C     0.461000000     1.419000000     4.696000000
H     1.067000000     0.521000000     4.786000000
C    -0.907000000     1.213000000     4.583000000
O    -1.349000000    -0.040000000     4.640000000
C    -1.897000000    -0.692000000     3.482000000
C    -1.367000000    -2.166000000     3.264000000
C    -2.272000000    -3.196000000     2.992000000
H    -3.345000000    -3.103000000     3.138000000
C    -0.024000000    -2.402000000     3.283000000
H     0.666000000    -1.575000000     3.429000000
O    -3.357000000    -0.663000000     3.536000000
H    -1.522000000    -0.188000000     2.579000000
C    -1.676000000     2.251000000     4.077000000
C    -3.235000000     2.174000000     4.118000000
H    -3.674000000     3.158000000     4.297000000
H    -3.595000000     1.501000000     4.898000000
C    -3.793000000     1.587000000     2.807000000
C    -4.374000000     2.349000000     1.812000000
H    -4.336000000     3.434000000     1.757000000
C    -4.000000000     0.200000000     2.740000000
C    -4.499000000    -0.386000000     1.581000000
H    -4.539000000    -1.458000000     1.402000000
C    -4.865000000     0.379000000     0.450000000
O    -5.050000000    -0.265000000    -0.789000000
C    -3.944000000    -0.327000000    -1.758000000
C    -3.807000000    -1.604000000    -2.628000000
C    -3.620000000    -2.863000000    -2.033000000
H    -3.558000000    -2.838000000    -0.948000000
C    -3.671000000    -1.568000000    -4.036000000
H    -3.855000000    -0.600000000    -4.495000000
O    -4.227000000     0.792000000    -2.699000000
H    -2.983000000    -0.100000000    -1.273000000
C    -4.742000000     1.793000000     0.612000000
C    -5.007000000     2.654000000    -0.604000000
H    -5.514000000     3.554000000    -0.249000000
H    -5.866000000     2.252000000    -1.147000000
C    -3.770000000     2.767000000    -1.562000000
C    -3.410000000     1.816000000    -2.492000000
C    -2.285000000     1.972000000    -3.237000000
H    -1.957000000     1.173000000    -3.896000000
C    -1.391000000     2.978000000    -2.995000000
O    -0.169000000     2.934000000    -3.553000000
C     0.876000000     2.478000000    -2.730000000
H     0.559000000     1.866000000    -1.873000000
C     1.658000000     1.435000000    -3.613000000
C     2.977000000     1.173000000    -3.328000000
H     3.449000000     1.750000000    -2.538000000
C     1.028000000     0.649000000    -4.569000000
H    -0.025000000     0.758000000    -4.815000000
C     1.804000000    -0.361000000    -5.214000000
O     1.318000000    -1.120000000    -6.289000000
C     3.127000000    -0.609000000    -4.875000000
H     3.608000000    -1.466000000    -5.340000000
C     3.697000000     0.161000000    -3.881000000
O     5.003000000    -0.161000000    -3.561000000
C     5.756000000     0.598000000    -2.698000000
C     5.973000000     0.148000000    -1.421000000
H     5.614000000    -0.843000000    -1.156000000
C     6.151000000     1.932000000    -3.045000000
H     5.895000000     2.393000000    -3.995000000
C     6.939000000     2.738000000    -2.206000000
H     7.327000000     3.712000000    -2.493000000
C     7.183000000     2.272000000    -0.910000000
H     7.939000000     2.803000000    -0.338000000
C     6.657000000     1.039000000    -0.527000000
O     7.029000000     0.590000000     0.709000000
C     6.198000000     0.621000000     1.767000000
C     6.333000000    -0.339000000     2.747000000
H     7.072000000    -1.121000000     2.594000000
C     5.512000000    -0.368000000     3.884000000
O     5.547000000    -1.434000000     4.678000000
C     4.462000000    -2.257000000     4.996000000
C     3.608000000    -2.696000000     4.028000000
H     3.836000000    -2.449000000     2.994000000
C     4.154000000    -2.549000000     6.340000000
H     4.787000000    -2.200000000     7.151000000
C     3.088000000    -3.313000000     6.628000000
H     2.739000000    -3.462000000     7.647000000
C     2.296000000    -3.868000000     5.623000000
H     1.389000000    -4.440000000     5.800000000
C     2.562000000    -3.570000000     4.292000000
O     1.752000000    -4.024000000     3.302000000
C     0.407000000    -3.741000000     3.166000000
C    -0.494000000    -4.801000000     2.921000000
H    -0.129000000    -5.820000000     2.819000000
C    -1.857000000    -4.517000000     2.819000000
O    -2.730000000    -5.581000000     2.578000000
C    -3.268000000    -5.805000000     1.393000000
C    -2.856000000    -5.327000000     0.173000000
H    -1.946000000    -4.737000000     0.097000000
C    -4.361000000    -6.700000000     1.469000000
H    -4.640000000    -7.061000000     2.455000000
C    -5.156000000    -6.935000000     0.387000000
H    -5.988000000    -7.636000000     0.382000000
C    -4.752000000    -6.349000000    -0.832000000
H    -5.258000000    -6.530000000    -1.777000000
C    -3.646000000    -5.556000000    -0.970000000
O    -3.106000000    -5.186000000    -2.223000000
C    -3.353000000    -3.962000000    -2.834000000
C    -3.195000000    -3.937000000    -4.205000000
H    -2.899000000    -4.789000000    -4.811000000
C    -3.433000000    -2.713000000    -4.805000000
O    -3.233000000    -2.680000000    -6.135000000
C    -2.303000000    -1.807000000    -6.663000000
C    -2.585000000    -0.798000000    -7.641000000
H    -3.569000000    -0.748000000    -8.100000000
C    -1.574000000    -0.143000000    -8.281000000
H    -1.872000000     0.596000000    -9.020000000
C    -0.263000000    -0.209000000    -7.798000000
H     0.538000000     0.383000000    -8.235000000
C     0.008000000    -1.074000000    -6.744000000
C    -1.010000000    -1.865000000    -6.176000000
H    -0.677000000    -2.475000000    -5.340000000
C     2.005000000    -1.493000000     0.138000000
H     3.065000000    -1.733000000     0.127000000
C     1.634000000    -0.162000000     0.282000000
H     2.461000000     0.544000000     0.310000000
C     0.280000000     0.252000000     0.381000000
H     0.032000000     1.276000000     0.378000000
C    -0.731000000    -0.693000000     0.333000000
H    -1.766000000    -0.392000000     0.475000000
C    -0.358000000    -2.006000000     0.103000000
H    -1.237000000    -2.642000000     0.033000000
C     0.983000000    -2.447000000    -0.054000000
C     1.310000000    -3.864000000    -0.445000000
O     0.451000000    -4.542000000    -1.002000000
O     2.510000000    -4.200000000    -0.409000000
O     5.149000000    -3.657000000    -0.341000000
H     4.196000000    -3.735000000    -0.296000000
H     5.442000000    -4.503000000    -0.681000000
O     2.585000000    -6.804000000     0.480000000
H     1.707000000    -7.076000000     0.213000000
H     2.677000000    -5.917000000     0.134000000
O     1.213000000    -9.876000000    -2.450000000
H     1.776000000   -10.039000000    -1.693000000
H     1.253000000    -8.929000000    -2.579000000
O    -0.152000000    -4.588000000    -3.577000000
H     0.019000000    -4.608000000    -2.635000000
H    -1.095000000    -4.438000000    -3.646000000
O     5.979000000    -5.896000000    -4.370000000
H     6.512000000    -6.687000000    -4.437000000
H     6.193000000    -5.535000000    -3.509000000
O    -0.763000000    -9.753000000     0.275000000
H    -0.914000000   -10.343000000    -0.463000000
H    -0.474000000    -8.934000000    -0.128000000
O     0.619000000    -4.806000000    -6.225000000
H     0.555000000    -4.790000000    -5.270000000
H     1.429000000    -4.335000000    -6.419000000
O     3.422000000    -9.806000000    -0.076000000
H     3.294000000    -9.048000000     0.495000000
H     3.588000000    -9.430000000    -0.940000000
O     8.035000000    -3.461000000    -1.029000000
H     7.173000000    -3.305000000    -0.645000000
H     7.867000000    -3.556000000    -1.966000000
O     1.923000000    -7.371000000    -3.765000000
H     1.570000000    -6.889000000    -4.513000000
H     2.525000000    -6.756000000    -3.346000000
O     6.292000000    -7.955000000     0.801000000
H     6.716000000    -8.340000000     1.568000000
H     6.068000000    -7.065000000     1.072000000
O     0.264000000    -7.181000000    -0.823000000
H    -0.304000000    -7.412000000    -1.558000000
H     0.456000000    -6.252000000    -0.953000000
O     3.165000000    -5.027000000    -2.806000000
H     3.984000000    -5.400000000    -2.481000000
H     2.668000000    -4.817000000    -2.015000000
O    -1.342000000    -7.864000000    -2.935000000
H    -2.120000000    -7.355000000    -2.707000000
H    -1.433000000    -8.032000000    -3.873000000
O     4.353000000    -8.392000000    -2.616000000
H     3.601000000    -8.394000000    -3.208000000
H     5.046000000    -8.835000000    -3.107000000
O     5.004000000    -6.597000000     4.296000000
H     4.214000000    -6.929000000     3.871000000
H     5.451000000    -6.095000000     3.614000000
O     6.238000000    -5.190000000     2.175000000
H     5.811000000    -4.758000000     1.435000000
H     6.898000000    -4.562000000     2.470000000
O     5.715000000    -6.205000000    -1.606000000
H     4.974000000    -6.750000000    -1.869000000
H     6.474000000    -6.783000000    -1.674000000
O     2.403000000    -8.249000000     2.758000000
H     1.497000000    -8.558000000     2.770000000
H     2.414000000    -7.566000000     2.088000000
