215
-1442.12621
C     4.501000000     0.073000000     1.686000000
H     3.906000000    -0.130000000     2.572000000
C     4.229000000     1.265000000     1.032000000
C     4.889000000     1.524000000    -0.188000000
H     4.604000000     2.431000000    -0.715000000
C     3.163000000     2.163000000     1.550000000
O     3.170000000     2.215000000     3.017000000
H     2.160000000     1.809000000     1.269000000
O     3.256000000     3.482000000     0.964000000
C     2.056000000     4.032000000     0.588000000
C     1.908000000     4.120000000    -0.770000000
H     2.702000000     3.792000000    -1.437000000
C     0.700000000     4.446000000    -1.270000000
O     0.545000000     4.228000000    -2.618000000
C    -0.340000000     4.674000000    -0.359000000
C    -1.693000000     5.210000000    -0.904000000
H    -2.205000000     5.781000000    -0.127000000
C    -2.606000000     4.006000000    -1.166000000
C    -3.487000000     3.535000000    -0.176000000
H    -3.533000000     4.018000000     0.797000000
H    -1.526000000     5.779000000    -1.821000000
C    -0.112000000     4.743000000     1.031000000
H    -0.932000000     5.074000000     1.662000000
C     1.094000000     4.432000000     1.569000000
C     1.410000000     4.467000000     3.005000000
H     0.920000000     5.219000000     3.626000000
H     2.466000000     4.697000000     3.166000000
C     1.068000000     3.129000000     3.701000000
C    -0.248000000     2.921000000     4.191000000
H    -0.957000000     3.737000000     4.306000000
C     1.894000000     2.028000000     3.608000000
C     1.460000000     0.822000000     4.034000000
H     2.172000000     0.003000000     4.088000000
C     0.180000000     0.596000000     4.547000000
O    -0.265000000    -0.647000000     4.945000000
C    -0.941000000    -1.562000000     4.076000000
C    -0.185000000    -2.920000000     4.039000000
C    -0.803000000    -3.978000000     3.414000000
H    -1.756000000    -3.857000000     2.907000000
C     1.135000000    -2.998000000     4.447000000
H     1.570000000    -2.092000000     4.863000000
O    -2.357000000    -1.477000000     4.413000000
H    -0.906000000    -1.142000000     3.060000000
C    -0.694000000     1.670000000     4.615000000
C    -2.137000000     1.440000000     4.956000000
H    -2.496000000     2.435000000     5.227000000
H    -2.135000000     0.896000000     5.903000000
C    -2.987000000     0.820000000     3.879000000
C    -3.693000000     1.590000000     2.947000000
H    -3.749000000     2.668000000     3.070000000
C    -3.176000000    -0.591000000     3.773000000
C    -3.831000000    -1.178000000     2.698000000
H    -3.807000000    -2.258000000     2.583000000
C    -4.403000000    -0.395000000     1.667000000
O    -4.828000000    -0.989000000     0.491000000
C    -4.124000000    -0.724000000    -0.728000000
C    -4.042000000    -1.987000000    -1.580000000
C    -3.980000000    -3.271000000    -0.960000000
H    -3.904000000    -3.422000000     0.114000000
C    -3.922000000    -1.892000000    -2.992000000
H    -4.026000000    -0.918000000    -3.462000000
O    -4.688000000     0.336000000    -1.530000000
H    -3.073000000    -0.522000000    -0.472000000
C    -4.378000000     0.986000000     1.843000000
C    -5.129000000     1.954000000     0.905000000
H    -5.279000000     2.862000000     1.493000000
H    -6.053000000     1.448000000     0.618000000
C    -4.285000000     2.399000000    -0.315000000
C    -4.094000000     1.544000000    -1.471000000
C    -3.265000000     2.053000000    -2.487000000
H    -3.192000000     1.495000000    -3.417000000
C    -2.549000000     3.296000000    -2.376000000
O    -1.630000000     3.485000000    -3.371000000
C    -0.260000000     3.127000000    -2.998000000
H    -0.251000000     2.379000000    -2.192000000
C     0.338000000     2.402000000    -4.171000000
C     1.719000000     2.430000000    -4.321000000
H     2.312000000     2.945000000    -3.570000000
C    -0.418000000     1.552000000    -4.948000000
H    -1.500000000     1.536000000    -4.844000000
C     0.158000000     0.885000000    -6.001000000
O    -0.515000000     0.087000000    -6.951000000
C     1.527000000     0.994000000    -6.195000000
H     2.021000000     0.379000000    -6.942000000
C     2.339000000     1.764000000    -5.394000000
O     3.658000000     1.717000000    -5.657000000
C     4.667000000     2.204000000    -4.731000000
C     5.170000000     1.343000000    -3.701000000
H     4.717000000     0.366000000    -3.553000000
C     5.171000000     3.490000000    -4.861000000
H     4.730000000     4.157000000    -5.598000000
C     6.170000000     4.019000000    -4.028000000
H     6.437000000     5.064000000    -4.164000000
C     6.454000000     3.252000000    -2.888000000
H     7.067000000     3.692000000    -2.105000000
C     6.072000000     1.935000000    -2.804000000
O     6.565000000     1.099000000    -1.827000000
C     5.845000000     0.714000000    -0.687000000
C     6.216000000    -0.418000000     0.037000000
H     6.963000000    -1.121000000    -0.324000000
C     5.479000000    -0.779000000     1.173000000
O     5.660000000    -1.964000000     1.720000000
C     5.433000000    -2.233000000     3.081000000
C     4.370000000    -2.997000000     3.346000000
H     3.686000000    -3.377000000     2.592000000
C     6.280000000    -1.770000000     4.093000000
H     7.112000000    -1.143000000     3.783000000
C     5.988000000    -2.247000000     5.403000000
H     6.655000000    -1.995000000     6.224000000
C     4.988000000    -3.098000000     5.685000000
H     4.840000000    -3.450000000     6.702000000
C     4.118000000    -3.386000000     4.683000000
O     3.106000000    -4.266000000     4.967000000
C     1.862000000    -4.185000000     4.406000000
C     1.157000000    -5.322000000     3.903000000
H     1.722000000    -6.245000000     3.808000000
C    -0.098000000    -5.194000000     3.343000000
O    -0.574000000    -6.202000000     2.515000000
C    -1.856000000    -6.247000000     1.992000000
C    -2.160000000    -5.828000000     0.689000000
H    -1.340000000    -5.391000000     0.125000000
C    -2.822000000    -6.877000000     2.724000000
H    -2.544000000    -7.294000000     3.689000000
C    -4.151000000    -7.040000000     2.180000000
H    -5.007000000    -7.477000000     2.688000000
C    -4.464000000    -6.512000000     0.942000000
H    -5.458000000    -6.592000000     0.509000000
C    -3.465000000    -5.937000000     0.162000000
O    -3.727000000    -5.660000000    -1.165000000
C    -3.856000000    -4.415000000    -1.688000000
C    -3.601000000    -4.283000000    -3.029000000
H    -3.330000000    -5.161000000    -3.610000000
C    -3.625000000    -3.021000000    -3.702000000
O    -3.538000000    -3.008000000    -5.052000000
C    -3.327000000    -1.793000000    -5.665000000
C    -4.421000000    -1.086000000    -6.147000000
H    -5.435000000    -1.452000000    -6.013000000
C    -4.194000000    -0.054000000    -7.061000000
H    -4.958000000     0.426000000    -7.669000000
C    -2.865000000     0.345000000    -7.207000000
H    -2.691000000     1.158000000    -7.908000000
C    -1.797000000    -0.345000000    -6.728000000
C    -1.984000000    -1.436000000    -5.893000000
H    -1.232000000    -2.021000000    -5.369000000
C     2.365000000    -0.573000000    -1.240000000
H     3.270000000    -0.578000000    -1.842000000
C     1.595000000     0.592000000    -0.984000000
H     1.935000000     1.575000000    -1.300000000
C     0.486000000     0.459000000    -0.194000000
H    -0.187000000     1.337000000     0.080000000
C     0.085000000    -0.809000000     0.303000000
H    -0.741000000    -0.845000000     1.007000000
C     0.837000000    -1.969000000     0.009000000
H     0.440000000    -2.920000000     0.357000000
C     1.973000000    -1.855000000    -0.824000000
C     2.816000000    -3.084000000    -1.143000000
O     2.440000000    -4.155000000    -0.733000000
O     3.563000000    -3.008000000    -2.070000000
O     2.314000000    -2.497000000    -4.502000000
H     1.439000000    -2.146000000    -4.335000000
H     2.575000000    -2.893000000    -3.670000000
O     6.627000000    -6.971000000    -0.963000000
H     6.129000000    -6.173000000    -0.791000000
H     7.232000000    -7.040000000    -0.224000000
O     2.585000000    -6.512000000     0.325000000
H     2.528000000    -5.619000000    -0.016000000
H     3.385000000    -6.517000000     0.850000000
O     4.563000000    -6.198000000     1.941000000
H     5.014000000    -5.787000000     1.203000000
H     5.180000000    -6.855000000     2.263000000
O     4.185000000    -5.652000000    -3.234000000
H     3.281000000    -5.967000000    -3.207000000
H     4.138000000    -4.761000000    -2.887000000
O     6.451000000    -7.446000000    -4.093000000
H     7.047000000    -6.794000000    -3.724000000
H     5.578000000    -7.131000000    -3.857000000
O     3.571000000    -2.101000000    -6.791000000
H     3.231000000    -1.911000000    -5.917000000
H     4.392000000    -2.567000000    -6.632000000
O     8.712000000    -2.870000000    -1.470000000
H     7.788000000    -2.834000000    -1.719000000
H     8.700000000    -3.085000000    -0.537000000
O     1.292000000    -3.762000000    -7.199000000
H     0.687000000    -4.186000000    -6.590000000
H     1.962000000    -3.372000000    -6.638000000
O     2.272000000    -8.824000000    -1.652000000
H     2.596000000    -8.045000000    -1.201000000
H     2.570000000    -9.555000000    -1.111000000
O     1.186000000    -5.667000000    -2.713000000
H     0.430000000    -6.204000000    -2.473000000
H     1.498000000    -5.309000000    -1.883000000
O     6.142000000    -2.481000000    -2.766000000
H     5.242000000    -2.688000000    -2.514000000
H     6.096000000    -2.324000000    -3.710000000
O    -0.185000000    -5.208000000    -5.404000000
H     0.135000000    -5.282000000    -4.505000000
H    -0.080000000    -6.086000000    -5.769000000
O     2.980000000    -6.988000000    -5.948000000
H     2.794000000    -6.639000000    -5.077000000
H     2.190000000    -7.473000000    -6.186000000
O     7.986000000    -4.540000000    -3.983000000
H     7.513000000    -3.722000000    -4.135000000
H     8.373000000    -4.434000000    -3.114000000
O     1.560000000    -8.402000000     2.022000000
H     1.995000000    -7.714000000     1.518000000
H     0.628000000    -8.277000000     1.843000000
O     5.134000000    -4.756000000    -0.244000000
H     5.596000000    -4.354000000    -0.980000000
H     4.223000000    -4.487000000    -0.359000000
O     6.085000000    -2.045000000    -5.365000000
H     6.335000000    -2.261000000    -6.264000000
H     6.604000000    -1.269000000    -5.152000000
O     5.136000000    -5.251000000    -6.394000000
H     4.561000000    -6.016000000    -6.372000000
H     5.454000000    -5.166000000    -5.495000000
