215
-1443.14424
C     3.721000000     0.113000000     1.675000000
H     3.089000000    -0.244000000     2.484000000
C     3.668000000     1.404000000     1.267000000
C     4.574000000     1.812000000     0.231000000
H     4.459000000     2.806000000    -0.195000000
C     2.582000000     2.363000000     1.772000000
O     2.354000000     2.367000000     3.235000000
H     1.648000000     1.948000000     1.365000000
O     2.658000000     3.769000000     1.327000000
C     1.602000000     4.271000000     0.669000000
C     1.677000000     4.392000000    -0.683000000
H     2.560000000     4.066000000    -1.227000000
C     0.485000000     4.691000000    -1.330000000
O     0.497000000     4.489000000    -2.677000000
C    -0.733000000     4.954000000    -0.698000000
C    -1.967000000     5.196000000    -1.523000000
H    -2.639000000     5.932000000    -1.078000000
C    -2.638000000     3.877000000    -1.695000000
C    -3.496000000     3.536000000    -0.716000000
H    -3.621000000     4.192000000     0.141000000
H    -1.769000000     5.589000000    -2.522000000
C    -0.782000000     4.907000000     0.682000000
H    -1.701000000     5.085000000     1.234000000
C     0.360000000     4.601000000     1.380000000
C     0.303000000     4.614000000     2.915000000
H    -0.392000000     5.348000000     3.328000000
H     1.278000000     4.969000000     3.255000000
C     0.111000000     3.241000000     3.498000000
C    -1.160000000     2.921000000     3.912000000
H    -1.886000000     3.726000000     3.824000000
C     1.117000000     2.266000000     3.741000000
C     0.785000000     1.074000000     4.358000000
H     1.621000000     0.389000000     4.480000000
C    -0.535000000     0.786000000     4.789000000
O    -0.828000000    -0.450000000     5.339000000
C    -1.236000000    -1.387000000     4.388000000
C    -0.565000000    -2.704000000     4.429000000
C    -1.115000000    -3.991000000     4.143000000
H    -2.161000000    -4.130000000     3.881000000
C     0.746000000    -2.796000000     4.977000000
H     1.253000000    -1.905000000     5.337000000
O    -2.667000000    -1.457000000     4.418000000
H    -1.008000000    -1.027000000     3.374000000
C    -1.512000000     1.738000000     4.512000000
C    -3.021000000     1.416000000     4.873000000
H    -3.620000000     2.319000000     5.006000000
H    -3.000000000     0.900000000     5.835000000
C    -3.609000000     0.706000000     3.710000000
C    -4.165000000     1.522000000     2.662000000
H    -4.216000000     2.598000000     2.808000000
C    -3.456000000    -0.706000000     3.572000000
C    -3.833000000    -1.274000000     2.310000000
H    -3.697000000    -2.350000000     2.237000000
C    -4.354000000    -0.513000000     1.306000000
O    -4.645000000    -1.195000000     0.183000000
C    -3.845000000    -0.859000000    -0.997000000
C    -3.661000000    -2.111000000    -1.787000000
C    -3.196000000    -3.226000000    -1.093000000
H    -2.933000000    -3.157000000    -0.041000000
C    -3.665000000    -2.163000000    -3.152000000
H    -3.926000000    -1.259000000    -3.697000000
O    -4.518000000     0.164000000    -1.799000000
H    -2.818000000    -0.551000000    -0.752000000
C    -4.479000000     0.929000000     1.465000000
C    -5.077000000     1.845000000     0.391000000
H    -5.579000000     2.647000000     0.936000000
H    -5.881000000     1.305000000    -0.115000000
C    -4.178000000     2.314000000    -0.749000000
C    -4.011000000     1.487000000    -1.873000000
C    -3.047000000     1.776000000    -2.830000000
H    -2.855000000     1.145000000    -3.695000000
C    -2.444000000     3.013000000    -2.735000000
O    -1.342000000     3.241000000    -3.559000000
C     0.021000000     3.152000000    -3.031000000
H    -0.048000000     2.475000000    -2.167000000
C     0.825000000     2.476000000    -4.154000000
C     2.157000000     2.829000000    -4.482000000
H     2.463000000     3.797000000    -4.094000000
C     0.229000000     1.438000000    -4.851000000
H    -0.797000000     1.133000000    -4.659000000
C     1.052000000     0.651000000    -5.690000000
O     0.625000000    -0.661000000    -5.959000000
C     2.339000000     1.073000000    -6.069000000
H     2.949000000     0.371000000    -6.631000000
C     2.889000000     2.182000000    -5.405000000
O     4.187000000     2.538000000    -5.527000000
C     4.977000000     2.807000000    -4.412000000
C     5.034000000     1.856000000    -3.445000000
H     4.464000000     0.935000000    -3.537000000
C     5.715000000     3.957000000    -4.297000000
H     5.706000000     4.776000000    -5.011000000
C     6.710000000     4.081000000    -3.325000000
H     7.340000000     4.963000000    -3.235000000
C     6.844000000     3.080000000    -2.376000000
H     7.641000000     3.136000000    -1.638000000
C     5.938000000     2.074000000    -2.366000000
O     6.141000000     1.080000000    -1.422000000
C     5.391000000     0.861000000    -0.306000000
C     5.501000000    -0.409000000     0.120000000
H     6.056000000    -1.134000000    -0.470000000
C     4.657000000    -0.764000000     1.213000000
O     4.621000000    -2.117000000     1.614000000
C     4.715000000    -2.334000000     2.966000000
C     3.635000000    -2.920000000     3.627000000
H     2.708000000    -3.140000000     3.103000000
C     5.819000000    -1.912000000     3.705000000
H     6.658000000    -1.470000000     3.172000000
C     5.895000000    -2.255000000     5.021000000
H     6.763000000    -1.926000000     5.587000000
C     4.912000000    -2.990000000     5.658000000
H     4.959000000    -3.191000000     6.726000000
C     3.759000000    -3.315000000     4.923000000
O     2.701000000    -3.989000000     5.572000000
C     1.435000000    -4.044000000     5.109000000
C     0.947000000    -5.172000000     4.444000000
H     1.478000000    -6.120000000     4.482000000
C    -0.352000000    -5.150000000     4.007000000
O    -0.884000000    -6.318000000     3.609000000
C    -1.709000000    -6.341000000     2.570000000
C    -1.466000000    -5.800000000     1.319000000
H    -0.513000000    -5.305000000     1.153000000
C    -2.920000000    -7.022000000     2.803000000
H    -3.127000000    -7.499000000     3.757000000
C    -3.855000000    -7.175000000     1.773000000
H    -4.699000000    -7.838000000     1.949000000
C    -3.595000000    -6.510000000     0.554000000
H    -4.323000000    -6.502000000    -0.253000000
C    -2.356000000    -5.845000000     0.333000000
O    -2.192000000    -5.432000000    -0.955000000
C    -2.798000000    -4.410000000    -1.699000000
C    -2.884000000    -4.422000000    -3.099000000
H    -2.647000000    -5.305000000    -3.687000000
C    -3.334000000    -3.327000000    -3.826000000
O    -3.250000000    -3.361000000    -5.232000000
C    -2.677000000    -2.283000000    -5.906000000
C    -3.270000000    -1.594000000    -6.940000000
H    -4.300000000    -1.776000000    -7.238000000
C    -2.594000000    -0.603000000    -7.622000000
H    -3.087000000     0.052000000    -8.337000000
C    -1.277000000    -0.383000000    -7.349000000
H    -0.829000000     0.456000000    -7.875000000
C    -0.618000000    -1.058000000    -6.364000000
C    -1.328000000    -2.023000000    -5.652000000
H    -0.852000000    -2.425000000    -4.762000000
C     1.880000000    -0.743000000    -1.120000000
H     2.609000000    -0.425000000    -1.861000000
C     0.927000000     0.188000000    -0.630000000
H     0.975000000     1.253000000    -0.843000000
C    -0.094000000    -0.202000000     0.222000000
H    -0.859000000     0.421000000     0.695000000
C    -0.139000000    -1.515000000     0.624000000
H    -0.969000000    -1.741000000     1.289000000
C     0.828000000    -2.402000000     0.147000000
H     0.846000000    -3.449000000     0.440000000
C     1.886000000    -2.053000000    -0.664000000
C     2.919000000    -3.033000000    -1.119000000
O     2.750000000    -4.166000000    -0.789000000
O     3.865000000    -2.638000000    -1.766000000
O     2.577000000    -4.236000000    -4.205000000
H     3.074000000    -3.545000000    -3.767000000
H     2.331000000    -4.836000000    -3.502000000
O     6.823000000    -5.175000000     2.671000000
H     6.344000000    -4.936000000     1.878000000
H     7.599000000    -4.615000000     2.661000000
O     6.836000000    -6.964000000     0.075000000
H     6.049000000    -6.425000000     0.153000000
H     7.460000000    -6.411000000    -0.394000000
O     1.770000000    -5.977000000     1.107000000
H     1.981000000    -5.311000000     0.454000000
H     2.545000000    -6.016000000     1.669000000
O     3.796000000    -6.090000000     2.786000000
H     4.531000000    -5.611000000     2.403000000
H     4.074000000    -6.277000000     3.683000000
O     4.530000000    -5.897000000    -2.089000000
H     3.953000000    -5.341000000    -1.565000000
H     4.388000000    -6.780000000    -1.746000000
O     6.141000000    -5.093000000    -4.311000000
H     6.307000000    -4.157000000    -4.202000000
H     5.505000000    -5.305000000    -3.628000000
O     1.543000000    -3.979000000    -6.923000000
H     0.967000000    -3.235000000    -6.749000000
H     2.042000000    -4.091000000    -6.114000000
O     1.130000000    -8.149000000    -1.914000000
H     1.175000000    -7.194000000    -1.867000000
H     0.391000000    -8.325000000    -2.496000000
O     0.525000000    -8.181000000     0.835000000
H     0.955000000    -7.346000000     1.019000000
H     0.611000000    -8.290000000    -0.113000000
O     7.216000000    -4.028000000    -1.042000000
H     6.888000000    -3.652000000    -1.859000000
H     7.605000000    -3.287000000    -0.577000000
O     3.916000000    -8.357000000    -1.110000000
H     3.016000000    -8.344000000    -1.435000000
H     3.923000000    -9.053000000    -0.452000000
O     8.096000000    -2.104000000     0.539000000
H     8.536000000    -2.625000000     1.211000000
H     7.856000000    -1.292000000     0.985000000
O     0.875000000    -5.329000000    -2.082000000
H     0.007000000    -5.072000000    -1.771000000
H     1.482000000    -4.830000000    -1.536000000
O     6.033000000    -2.690000000    -3.192000000
H     5.319000000    -2.651000000    -2.556000000
H     5.781000000    -2.066000000    -3.873000000
O     7.797000000    -6.315000000    -2.746000000
H     7.488000000    -6.177000000    -3.641000000
H     7.540000000    -5.520000000    -2.279000000
O     5.126000000    -4.748000000     0.609000000
H     5.615000000    -4.493000000    -0.174000000
H     4.249000000    -4.389000000     0.472000000
O     5.610000000    -0.948000000    -5.206000000
H     5.349000000    -1.392000000    -6.013000000
H     5.853000000    -0.065000000    -5.486000000
O     3.839000000    -6.317000000    -5.614000000
H     3.627000000    -5.498000000    -5.167000000
H     4.678000000    -6.585000000    -5.237000000
