215
-1463.24677
C     5.165000000     0.671000000     1.741000000
H     4.701000000     0.444000000     2.697000000
C     4.705000000     1.767000000     0.998000000
C     5.334000000     2.061000000    -0.206000000
H     4.980000000     2.924000000    -0.764000000
C     3.527000000     2.666000000     1.421000000
O     3.436000000     2.891000000     2.841000000
H     2.700000000     2.024000000     1.084000000
O     3.490000000     3.915000000     0.737000000
C     2.226000000     4.208000000     0.244000000
C     2.014000000     3.915000000    -1.056000000
H     2.725000000     3.341000000    -1.645000000
C     0.734000000     4.118000000    -1.590000000
O     0.538000000     3.585000000    -2.861000000
C    -0.234000000     4.757000000    -0.888000000
C    -1.695000000     4.980000000    -1.409000000
H    -2.156000000     5.810000000    -0.870000000
C    -2.680000000     3.794000000    -1.333000000
C    -3.592000000     3.642000000    -0.289000000
H    -3.482000000     4.401000000     0.481000000
H    -1.665000000     5.270000000    -2.461000000
C     0.034000000     5.135000000     0.456000000
H    -0.710000000     5.576000000     1.115000000
C     1.306000000     4.865000000     1.023000000
C     1.473000000     4.993000000     2.542000000
H     0.816000000     5.739000000     2.994000000
H     2.503000000     5.260000000     2.788000000
C     1.188000000     3.703000000     3.308000000
C    -0.068000000     3.414000000     3.811000000
H    -0.855000000     4.162000000     3.756000000
C     2.184000000     2.713000000     3.381000000
C     1.854000000     1.475000000     3.884000000
H     2.560000000     0.655000000     3.996000000
C     0.583000000     1.212000000     4.327000000
O     0.328000000    -0.081000000     4.821000000
C    -0.516000000    -0.999000000     4.013000000
C     0.033000000    -2.453000000     3.921000000
C    -0.866000000    -3.585000000     3.836000000
H    -1.937000000    -3.410000000     3.891000000
C     1.420000000    -2.670000000     3.980000000
H     2.061000000    -1.806000000     4.137000000
O    -1.911000000    -0.939000000     4.393000000
H    -0.424000000    -0.736000000     2.949000000
C    -0.478000000     2.189000000     4.308000000
C    -1.853000000     1.909000000     4.860000000
H    -2.348000000     2.814000000     5.218000000
H    -1.975000000     1.236000000     5.711000000
C    -2.736000000     1.259000000     3.755000000
C    -3.578000000     1.971000000     2.900000000
H    -3.612000000     3.054000000     2.988000000
C    -2.633000000    -0.114000000     3.563000000
C    -3.357000000    -0.762000000     2.568000000
H    -3.238000000    -1.842000000     2.532000000
C    -4.171000000    -0.063000000     1.704000000
O    -4.840000000    -0.736000000     0.617000000
C    -4.252000000    -0.658000000    -0.638000000
C    -4.119000000    -1.971000000    -1.314000000
C    -3.972000000    -3.135000000    -0.543000000
H    -3.820000000    -3.060000000     0.531000000
C    -4.279000000    -1.997000000    -2.662000000
H    -4.379000000    -1.050000000    -3.186000000
O    -4.888000000     0.366000000    -1.452000000
H    -3.228000000    -0.309000000    -0.438000000
C    -4.318000000     1.345000000     1.984000000
C    -5.143000000     2.124000000     0.910000000
H    -5.516000000     3.009000000     1.429000000
H    -6.068000000     1.587000000     0.688000000
C    -4.368000000     2.470000000    -0.286000000
C    -4.266000000     1.545000000    -1.354000000
C    -3.364000000     1.763000000    -2.381000000
H    -3.327000000     1.066000000    -3.214000000
C    -2.570000000     2.844000000    -2.333000000
O    -1.696000000     2.967000000    -3.364000000
C    -0.379000000     2.432000000    -2.991000000
H    -0.505000000     1.898000000    -2.038000000
C     0.231000000     1.539000000    -4.059000000
C     1.582000000     1.275000000    -4.046000000
H     2.191000000     1.671000000    -3.237000000
C    -0.623000000     0.767000000    -4.913000000
H    -1.705000000     0.864000000    -4.920000000
C    -0.100000000    -0.167000000    -5.793000000
O    -0.877000000    -0.882000000    -6.659000000
C     1.210000000    -0.447000000    -5.690000000
H     1.547000000    -1.268000000    -6.318000000
C     2.057000000     0.281000000    -4.806000000
O     3.382000000    -0.072000000    -4.632000000
C     4.470000000     0.816000000    -4.486000000
C     5.236000000     0.705000000    -3.302000000
H     4.924000000    -0.131000000    -2.681000000
C     4.880000000     1.810000000    -5.442000000
H     4.296000000     1.903000000    -6.354000000
C     5.972000000     2.653000000    -5.234000000
H     6.205000000     3.417000000    -5.971000000
C     6.730000000     2.467000000    -4.041000000
H     7.527000000     3.174000000    -3.826000000
C     6.312000000     1.563000000    -3.104000000
O     7.059000000     1.561000000    -1.902000000
C     6.376000000     1.291000000    -0.654000000
C     6.868000000     0.180000000     0.094000000
H     7.764000000    -0.375000000    -0.171000000
C     6.241000000    -0.150000000     1.298000000
O     6.622000000    -1.274000000     2.008000000
C     6.027000000    -1.795000000     3.136000000
C     4.872000000    -2.659000000     2.961000000
H     4.375000000    -2.510000000     2.006000000
C     6.656000000    -1.724000000     4.383000000
H     7.604000000    -1.208000000     4.509000000
C     6.128000000    -2.505000000     5.437000000
H     6.669000000    -2.476000000     6.380000000
C     5.011000000    -3.300000000     5.250000000
H     4.536000000    -3.799000000     6.091000000
C     4.354000000    -3.362000000     4.008000000
O     3.271000000    -4.233000000     3.760000000
C     1.903000000    -3.922000000     3.738000000
C     1.067000000    -5.017000000     3.522000000
H     1.563000000    -5.967000000     3.341000000
C    -0.344000000    -4.867000000     3.590000000
O    -1.195000000    -5.976000000     3.397000000
C    -2.448000000    -5.831000000     2.828000000
C    -2.630000000    -5.638000000     1.478000000
H    -1.784000000    -5.502000000     0.809000000
C    -3.549000000    -5.938000000     3.678000000
H    -3.375000000    -5.955000000     4.751000000
C    -4.854000000    -5.838000000     3.140000000
H    -5.777000000    -5.849000000     3.714000000
C    -5.006000000    -5.769000000     1.698000000
H    -5.984000000    -5.717000000     1.225000000
C    -3.922000000    -5.606000000     0.915000000
O    -4.022000000    -5.546000000    -0.457000000
C    -3.984000000    -4.353000000    -1.163000000
C    -4.143000000    -4.400000000    -2.557000000
H    -4.006000000    -5.369000000    -3.032000000
C    -4.313000000    -3.269000000    -3.336000000
O    -4.433000000    -3.349000000    -4.711000000
C    -4.012000000    -2.328000000    -5.480000000
C    -4.907000000    -1.568000000    -6.145000000
H    -5.967000000    -1.670000000    -5.930000000
C    -4.474000000    -0.572000000    -7.051000000
H    -5.211000000     0.037000000    -7.568000000
C    -3.099000000    -0.282000000    -7.144000000
H    -2.725000000     0.540000000    -7.750000000
C    -2.195000000    -0.998000000    -6.370000000
C    -2.662000000    -1.971000000    -5.481000000
H    -2.008000000    -2.672000000    -4.968000000
C     2.063000000    -0.493000000    -0.719000000
H     2.980000000    -0.036000000    -1.082000000
C     1.059000000     0.359000000    -0.196000000
H     1.219000000     1.433000000    -0.243000000
C    -0.082000000    -0.086000000     0.421000000
H    -0.720000000     0.647000000     0.940000000
C    -0.359000000    -1.428000000     0.388000000
H    -1.263000000    -1.825000000     0.842000000
C     0.484000000    -2.277000000    -0.219000000
H     0.280000000    -3.345000000    -0.203000000
C     1.747000000    -1.827000000    -0.690000000
C     2.750000000    -2.817000000    -1.233000000
O     2.454000000    -4.006000000    -1.307000000
O     3.919000000    -2.513000000    -1.464000000
O     0.901000000    -4.242000000    -6.150000000
H     0.874000000    -3.919000000    -5.250000000
H     0.256000000    -3.709000000    -6.616000000
O     6.125000000    -8.977000000    -0.494000000
H     5.170000000    -9.014000000    -0.437000000
H     6.357000000    -8.147000000    -0.077000000
O     1.475000000    -6.157000000     0.334000000
H     1.755000000    -5.503000000    -0.306000000
H     2.160000000    -6.147000000     1.003000000
O     4.348000000    -6.764000000     1.341000000
H     4.291000000    -6.167000000     0.595000000
H     5.253000000    -6.684000000     1.644000000
O     3.704000000    -5.662000000    -2.830000000
H     3.107000000    -5.221000000    -2.225000000
H     3.981000000    -4.976000000    -3.437000000
O     4.256000000    -8.675000000    -3.047000000
H     3.886000000    -8.649000000    -2.164000000
H     4.291000000    -7.758000000    -3.319000000
O     3.144000000    -3.652000000    -8.113000000
H     2.473000000    -3.647000000    -7.431000000
H     3.496000000    -4.542000000    -8.096000000
O     8.983000000    -1.665000000    -3.073000000
H     9.516000000    -2.200000000    -2.484000000
H     8.080000000    -1.908000000    -2.866000000
O    -0.424000000    -6.701000000    -3.064000000
H    -1.070000000    -6.938000000    -3.730000000
H     0.211000000    -7.417000000    -3.080000000
O    -0.499000000    -7.641000000    -0.598000000
H    -0.392000000    -7.323000000    -1.495000000
H     0.067000000    -7.074000000    -0.074000000
O     7.302000000    -5.145000000    -1.397000000
H     7.024000000    -4.268000000    -1.661000000
H     7.529000000    -5.581000000    -2.219000000
O     2.976000000    -8.623000000    -0.428000000
H     3.186000000    -8.139000000     0.371000000
H     2.023000000    -8.569000000    -0.497000000
O     0.329000000    -3.802000000    -3.402000000
H     0.757000000    -3.720000000    -2.550000000
H     0.172000000    -4.741000000    -3.502000000
O     6.327000000    -2.627000000    -2.357000000
H     5.465000000    -2.573000000    -1.944000000
H     6.161000000    -2.453000000    -3.283000000
O    -0.426000000    -6.449000000    -7.026000000
H     0.100000000    -5.752000000    -6.635000000
H    -1.034000000    -6.708000000    -6.334000000
O     7.901000000    -4.676000000     2.142000000
H     7.332000000    -4.431000000     1.412000000
H     7.671000000    -5.585000000     2.330000000
O     5.181000000    -4.372000000     0.115000000
H     4.650000000    -3.749000000    -0.380000000
H     5.861000000    -4.649000000    -0.500000000
O     5.818000000    -2.075000000    -4.995000000
H     5.024000000    -1.598000000    -5.235000000
H     6.452000000    -1.842000000    -5.673000000
O     3.471000000    -6.861000000    -7.159000000
H     2.787000000    -7.399000000    -7.559000000
H     3.595000000    -7.239000000    -6.289000000
