215
-1457.96847
C     3.816000000     0.386000000     1.870000000
H     3.078000000     0.060000000     2.599000000
C     3.765000000     1.730000000     1.426000000
C     4.691000000     2.106000000     0.392000000
H     4.724000000     3.124000000     0.013000000
C     2.656000000     2.652000000     1.875000000
O     2.452000000     2.701000000     3.306000000
H     1.745000000     2.155000000     1.510000000
O     2.778000000     3.960000000     1.296000000
C     1.658000000     4.449000000     0.662000000
C     1.633000000     4.469000000    -0.746000000
H     2.465000000     3.971000000    -1.237000000
C     0.422000000     4.542000000    -1.416000000
O     0.452000000     4.126000000    -2.725000000
C    -0.752000000     4.886000000    -0.740000000
C    -2.081000000     5.055000000    -1.520000000
H    -2.701000000     5.728000000    -0.924000000
C    -2.746000000     3.752000000    -1.681000000
C    -3.562000000     3.379000000    -0.651000000
H    -3.578000000     3.926000000     0.288000000
H    -1.967000000     5.507000000    -2.507000000
C    -0.675000000     5.109000000     0.670000000
H    -1.569000000     5.531000000     1.121000000
C     0.501000000     4.800000000     1.411000000
C     0.526000000     4.731000000     2.873000000
H    -0.234000000     5.466000000     3.149000000
H     1.467000000     5.143000000     3.245000000
C     0.161000000     3.403000000     3.513000000
C    -1.198000000     3.103000000     3.843000000
H    -1.919000000     3.908000000     3.726000000
C     1.155000000     2.421000000     3.679000000
C     0.849000000     1.209000000     4.238000000
H     1.655000000     0.525000000     4.492000000
C    -0.456000000     0.892000000     4.600000000
O    -0.552000000    -0.470000000     4.961000000
C    -1.305000000    -1.346000000     4.060000000
C    -0.610000000    -2.739000000     4.147000000
C    -1.326000000    -3.911000000     3.820000000
H    -2.361000000    -3.807000000     3.505000000
C     0.708000000    -2.853000000     4.547000000
H     1.274000000    -2.016000000     4.948000000
O    -2.740000000    -1.370000000     4.311000000
H    -0.978000000    -1.027000000     3.059000000
C    -1.488000000     1.853000000     4.421000000
C    -2.932000000     1.500000000     4.766000000
H    -3.478000000     2.406000000     5.037000000
H    -2.897000000     0.803000000     5.606000000
C    -3.630000000     0.797000000     3.607000000
C    -4.255000000     1.514000000     2.572000000
H    -4.392000000     2.586000000     2.682000000
C    -3.439000000    -0.576000000     3.385000000
C    -3.900000000    -1.206000000     2.235000000
H    -3.645000000    -2.204000000     1.886000000
C    -4.499000000    -0.449000000     1.250000000
O    -4.758000000    -1.130000000     0.102000000
C    -3.955000000    -0.767000000    -1.064000000
C    -3.635000000    -2.041000000    -1.842000000
C    -3.186000000    -3.184000000    -1.119000000
H    -3.227000000    -3.089000000    -0.037000000
C    -3.699000000    -2.107000000    -3.298000000
H    -3.997000000    -1.192000000    -3.803000000
O    -4.716000000     0.114000000    -1.834000000
H    -3.076000000    -0.278000000    -0.619000000
C    -4.668000000     0.909000000     1.432000000
C    -5.359000000     1.736000000     0.328000000
H    -5.819000000     2.591000000     0.830000000
H    -6.244000000     1.201000000    -0.024000000
C    -4.378000000     2.226000000    -0.745000000
C    -4.170000000     1.348000000    -1.868000000
C    -3.119000000     1.642000000    -2.793000000
H    -2.899000000     0.900000000    -3.556000000
C    -2.527000000     2.893000000    -2.761000000
O    -1.478000000     3.022000000    -3.656000000
C    -0.174000000     2.891000000    -3.073000000
H    -0.180000000     2.360000000    -2.109000000
C     0.815000000     2.061000000    -3.911000000
C     2.188000000     2.344000000    -3.962000000
H     2.645000000     3.103000000    -3.331000000
C     0.303000000     0.921000000    -4.573000000
H    -0.740000000     0.625000000    -4.499000000
C     1.195000000     0.057000000    -5.155000000
O     0.842000000    -1.031000000    -5.896000000
C     2.478000000     0.443000000    -5.278000000
H     3.158000000    -0.187000000    -5.846000000
C     3.021000000     1.609000000    -4.793000000
O     4.389000000     1.836000000    -5.020000000
C     5.339000000     2.296000000    -4.124000000
C     5.512000000     1.760000000    -2.862000000
H     4.954000000     0.866000000    -2.597000000
C     6.238000000     3.354000000    -4.531000000
H     6.065000000     3.717000000    -5.541000000
C     7.284000000     3.707000000    -3.704000000
H     7.847000000     4.580000000    -4.022000000
C     7.419000000     3.172000000    -2.435000000
H     8.166000000     3.631000000    -1.792000000
C     6.589000000     2.141000000    -2.028000000
O     6.728000000     1.627000000    -0.713000000
C     5.618000000     1.151000000    -0.086000000
C     5.732000000    -0.120000000     0.509000000
H     6.530000000    -0.824000000     0.284000000
C     4.708000000    -0.521000000     1.349000000
O     4.647000000    -1.820000000     1.752000000
C     4.645000000    -2.175000000     3.114000000
C     3.600000000    -2.962000000     3.610000000
H     2.939000000    -3.382000000     2.857000000
C     5.664000000    -1.824000000     4.032000000
H     6.414000000    -1.108000000     3.704000000
C     5.587000000    -2.237000000     5.377000000
H     6.355000000    -1.915000000     6.075000000
C     4.561000000    -3.069000000     5.769000000
H     4.582000000    -3.364000000     6.815000000
C     3.513000000    -3.405000000     4.940000000
O     2.492000000    -4.214000000     5.326000000
C     1.258000000    -4.062000000     4.696000000
C     0.588000000    -5.255000000     4.285000000
H     1.091000000    -6.209000000     4.424000000
C    -0.738000000    -5.142000000     3.859000000
O    -1.369000000    -6.265000000     3.433000000
C    -2.223000000    -6.271000000     2.380000000
C    -1.757000000    -5.890000000     1.105000000
H    -0.701000000    -5.682000000     0.955000000
C    -3.564000000    -6.394000000     2.684000000
H    -3.831000000    -6.578000000     3.721000000
C    -4.499000000    -6.155000000     1.621000000
H    -5.549000000    -6.077000000     1.894000000
C    -4.028000000    -5.830000000     0.344000000
H    -4.786000000    -5.645000000    -0.413000000
C    -2.685000000    -5.748000000     0.090000000
O    -2.358000000    -5.490000000    -1.192000000
C    -2.818000000    -4.368000000    -1.821000000
C    -2.753000000    -4.300000000    -3.228000000
H    -2.199000000    -5.065000000    -3.768000000
C    -3.273000000    -3.223000000    -3.940000000
O    -3.206000000    -3.332000000    -5.328000000
C    -2.456000000    -2.490000000    -6.038000000
C    -3.013000000    -1.874000000    -7.114000000
H    -4.008000000    -2.153000000    -7.452000000
C    -2.309000000    -0.857000000    -7.864000000
H    -2.806000000    -0.322000000    -8.670000000
C    -0.952000000    -0.590000000    -7.518000000
H    -0.387000000     0.214000000    -7.982000000
C    -0.370000000    -1.314000000    -6.448000000
C    -1.128000000    -2.201000000    -5.681000000
H    -0.717000000    -2.723000000    -4.822000000
C     1.886000000    -0.789000000    -0.992000000
H     2.862000000    -0.702000000    -1.462000000
C     1.228000000     0.322000000    -0.497000000
H     1.525000000     1.338000000    -0.746000000
C     0.020000000     0.187000000     0.170000000
H    -0.578000000     1.085000000     0.465000000
C    -0.445000000    -1.108000000     0.455000000
H    -1.309000000    -1.203000000     1.108000000
C     0.230000000    -2.198000000    -0.060000000
H    -0.195000000    -3.186000000     0.098000000
C     1.426000000    -2.106000000    -0.778000000
C     2.122000000    -3.314000000    -1.339000000
O     1.630000000    -4.405000000    -1.164000000
O     3.293000000    -3.267000000    -1.666000000
O     3.944000000    -1.999000000    -3.880000000
H     3.460000000    -2.360000000    -3.137000000
H     4.083000000    -2.747000000    -4.461000000
O     5.676000000    -6.318000000     3.075000000
H     4.871000000    -6.646000000     3.475000000
H     5.377000000    -5.704000000     2.404000000
O     2.128000000    -6.138000000     0.852000000
H     2.923000000    -5.817000000     1.277000000
H     1.885000000    -5.442000000     0.241000000
O     4.308000000    -5.530000000    -2.699000000
H     3.645000000    -6.140000000    -3.023000000
H     3.828000000    -4.942000000    -2.117000000
O     7.246000000    -5.042000000    -2.920000000
H     7.756000000    -5.501000000    -2.253000000
H     6.462000000    -4.743000000    -2.458000000
O     2.028000000    -4.968000000    -6.065000000
H     1.547000000    -5.591000000    -5.520000000
H     2.790000000    -4.727000000    -5.538000000
O     0.072000000    -6.903000000    -4.946000000
H    -0.523000000    -7.650000000    -4.997000000
H     0.019000000    -6.616000000    -4.034000000
O     2.696000000    -7.621000000    -3.543000000
H     2.717000000    -7.970000000    -4.434000000
H     1.800000000    -7.778000000    -3.246000000
O     8.139000000    -3.484000000    -0.035000000
H     7.343000000    -3.135000000    -0.436000000
H     8.202000000    -3.031000000     0.806000000
O     3.678000000    -8.581000000     0.033000000
H     4.551000000    -8.192000000    -0.005000000
H     3.096000000    -7.845000000     0.225000000
O     5.889000000    -6.820000000     0.135000000
H     6.602000000    -6.653000000    -0.482000000
H     5.481000000    -5.965000000     0.267000000
O     0.310000000    -6.072000000    -2.487000000
H     0.815000000    -5.337000000    -2.140000000
H    -0.583000000    -5.914000000    -2.181000000
O     5.973000000    -2.299000000    -1.583000000
H     5.118000000    -2.673000000    -1.796000000
H     6.255000000    -1.870000000    -2.391000000
O     5.903000000    -7.625000000    -3.762000000
H     5.142000000    -7.921000000    -3.262000000
H     6.070000000    -6.739000000    -3.442000000
O     4.431000000    -4.447000000    -5.169000000
H     5.330000000    -4.357000000    -5.485000000
H     4.523000000    -4.759000000    -4.269000000
O    -0.639000000    -9.106000000    -1.793000000
H     0.149000000    -8.626000000    -1.542000000
H    -0.864000000    -9.621000000    -1.018000000
O     4.572000000    -4.471000000     0.352000000
H     4.904000000    -3.768000000     0.910000000
H     3.946000000    -4.040000000    -0.230000000
O     6.587000000    -1.124000000    -3.943000000
H     6.990000000    -0.512000000    -4.558000000
H     5.654000000    -0.912000000    -3.972000000
O     0.843000000    -8.393000000     2.270000000
H    -0.074000000    -8.530000000     2.509000000
H     0.975000000    -7.449000000     2.358000000
