215
-1442.57212
C     4.834000000     0.580000000     1.228000000
H     4.446000000     0.469000000     2.237000000
C     4.344000000     1.585000000     0.347000000
C     4.848000000     1.762000000    -0.996000000
H     4.485000000     2.511000000    -1.695000000
C     3.308000000     2.409000000     0.900000000
O     3.509000000     2.760000000     2.280000000
H     2.337000000     1.896000000     0.831000000
O     3.129000000     3.664000000     0.192000000
C     1.940000000     4.056000000    -0.301000000
C     1.595000000     3.607000000    -1.550000000
H     2.202000000     2.962000000    -2.180000000
C     0.257000000     3.836000000    -1.944000000
O    -0.037000000     3.344000000    -3.262000000
C    -0.655000000     4.617000000    -1.180000000
C    -2.060000000     4.765000000    -1.754000000
H    -2.525000000     5.621000000    -1.259000000
C    -2.878000000     3.502000000    -1.501000000
C    -3.682000000     3.529000000    -0.346000000
H    -3.626000000     4.346000000     0.369000000
H    -2.064000000     5.151000000    -2.776000000
C    -0.200000000     5.126000000     0.068000000
H    -0.896000000     5.677000000     0.696000000
C     1.035000000     4.709000000     0.546000000
C     1.495000000     4.915000000     2.034000000
H     1.038000000     5.721000000     2.612000000
H     2.525000000     5.278000000     2.045000000
C     1.343000000     3.716000000     2.931000000
C     0.125000000     3.582000000     3.595000000
H    -0.675000000     4.318000000     3.570000000
C     2.400000000     2.835000000     3.105000000
C     2.077000000     1.652000000     3.847000000
H     2.786000000     0.836000000     3.961000000
C     0.847000000     1.444000000     4.363000000
O     0.653000000     0.226000000     4.922000000
C    -0.217000000    -0.725000000     4.184000000
C     0.464000000    -2.072000000     4.314000000
C    -0.331000000    -3.198000000     4.050000000
H    -1.392000000    -3.133000000     3.823000000
C     1.865000000    -2.240000000     4.378000000
H     2.543000000    -1.390000000     4.400000000
O    -1.517000000    -0.749000000     4.744000000
H    -0.219000000    -0.575000000     3.094000000
C    -0.135000000     2.419000000     4.298000000
C    -1.475000000     2.120000000     4.931000000
H    -1.902000000     3.101000000     5.147000000
H    -1.295000000     1.632000000     5.891000000
C    -2.411000000     1.323000000     4.018000000
C    -3.210000000     1.984000000     3.105000000
H    -3.234000000     3.068000000     3.184000000
C    -2.513000000    -0.071000000     4.142000000
C    -3.312000000    -0.762000000     3.243000000
H    -3.265000000    -1.844000000     3.154000000
C    -4.131000000    -0.129000000     2.336000000
O    -4.711000000    -0.860000000     1.278000000
C    -4.263000000    -0.820000000    -0.101000000
C    -4.169000000    -2.184000000    -0.776000000
C    -3.918000000    -3.317000000    -0.046000000
H    -3.765000000    -3.205000000     1.025000000
C    -4.324000000    -2.358000000    -2.151000000
H    -4.488000000    -1.546000000    -2.854000000
O    -5.085000000     0.107000000    -0.838000000
H    -3.259000000    -0.377000000    -0.172000000
C    -4.004000000     1.294000000     2.223000000
C    -4.989000000     2.146000000     1.327000000
H    -5.061000000     3.135000000     1.782000000
H    -5.982000000     1.692000000     1.315000000
C    -4.363000000     2.367000000    -0.068000000
C    -4.453000000     1.321000000    -1.001000000
C    -3.742000000     1.355000000    -2.134000000
H    -3.743000000     0.526000000    -2.838000000
C    -2.986000000     2.479000000    -2.421000000
O    -2.212000000     2.453000000    -3.553000000
C    -0.829000000     2.135000000    -3.333000000
H    -0.656000000     1.590000000    -2.393000000
C    -0.190000000     1.292000000    -4.359000000
C     1.158000000     1.358000000    -4.636000000
H     1.811000000     2.125000000    -4.227000000
C    -0.964000000     0.287000000    -4.931000000
H    -2.016000000     0.141000000    -4.701000000
C    -0.340000000    -0.667000000    -5.729000000
O    -1.005000000    -1.671000000    -6.352000000
C     1.016000000    -0.564000000    -6.115000000
H     1.514000000    -1.195000000    -6.847000000
C     1.727000000     0.506000000    -5.516000000
O     3.033000000     0.639000000    -5.970000000
C     3.980000000     1.412000000    -5.350000000
C     4.724000000     0.867000000    -4.280000000
H     4.569000000    -0.161000000    -3.964000000
C     4.157000000     2.795000000    -5.616000000
H     3.530000000     3.218000000    -6.397000000
C     5.102000000     3.544000000    -4.902000000
H     5.150000000     4.603000000    -5.142000000
C     5.963000000     2.906000000    -3.944000000
H     6.703000000     3.515000000    -3.432000000
C     5.667000000     1.557000000    -3.684000000
O     6.354000000     0.909000000    -2.679000000
C     5.837000000     0.903000000    -1.413000000
C     6.496000000     0.100000000    -0.466000000
H     7.339000000    -0.525000000    -0.751000000
C     5.970000000    -0.106000000     0.834000000
O     6.577000000    -1.069000000     1.594000000
C     6.176000000    -1.399000000     2.875000000
C     5.190000000    -2.355000000     3.043000000
H     4.786000000    -2.876000000     2.179000000
C     6.756000000    -0.743000000     3.919000000
H     7.518000000     0.010000000     3.735000000
C     6.327000000    -1.053000000     5.197000000
H     6.745000000    -0.506000000     6.039000000
C     5.423000000    -2.122000000     5.425000000
H     5.107000000    -2.336000000     6.443000000
C     4.867000000    -2.722000000     4.323000000
O     3.899000000    -3.679000000     4.494000000
C     2.468000000    -3.510000000     4.398000000
C     1.625000000    -4.588000000     4.379000000
H     2.016000000    -5.598000000     4.472000000
C     0.267000000    -4.442000000     4.110000000
O    -0.509000000    -5.524000000     3.986000000
C    -1.741000000    -5.613000000     3.356000000
C    -1.857000000    -5.617000000     1.950000000
H    -1.013000000    -5.487000000     1.278000000
C    -2.895000000    -5.640000000     4.190000000
H    -2.796000000    -5.655000000     5.273000000
C    -4.125000000    -5.620000000     3.594000000
H    -4.978000000    -5.615000000     4.267000000
C    -4.238000000    -5.679000000     2.221000000
H    -5.180000000    -5.807000000     1.694000000
C    -3.136000000    -5.659000000     1.388000000
O    -3.274000000    -5.685000000     0.091000000
C    -3.584000000    -4.551000000    -0.675000000
C    -3.902000000    -4.742000000    -2.020000000
H    -3.948000000    -5.697000000    -2.538000000
C    -4.280000000    -3.629000000    -2.734000000
O    -4.574000000    -3.818000000    -4.057000000
C    -4.139000000    -2.983000000    -5.094000000
C    -5.061000000    -2.615000000    -6.097000000
H    -6.070000000    -3.019000000    -6.092000000
C    -4.629000000    -1.938000000    -7.231000000
H    -5.377000000    -1.654000000    -7.967000000
C    -3.252000000    -1.587000000    -7.325000000
H    -2.874000000    -1.162000000    -8.251000000
C    -2.345000000    -1.905000000    -6.294000000
C    -2.791000000    -2.660000000    -5.186000000
H    -2.070000000    -2.882000000    -4.403000000
C     2.446000000    -1.940000000    -1.469000000
H     3.280000000    -1.776000000    -2.147000000
C     1.395000000    -1.019000000    -1.369000000
H     1.361000000    -0.195000000    -2.078000000
C     0.466000000    -1.129000000    -0.374000000
H    -0.401000000    -0.497000000    -0.295000000
C     0.568000000    -2.163000000     0.634000000
H    -0.200000000    -2.229000000     1.400000000
C     1.632000000    -3.057000000     0.548000000
H     1.665000000    -3.826000000     1.316000000
C     2.526000000    -2.987000000    -0.555000000
C     3.757000000    -3.905000000    -0.465000000
O     3.833000000    -4.708000000     0.497000000
O     4.681000000    -3.712000000    -1.234000000
O     1.934000000    -6.511000000     0.137000000
H     2.619000000    -5.936000000     0.479000000
H     1.308000000    -5.918000000    -0.277000000
O     5.956000000    -6.132000000    -0.924000000
H     5.249000000    -5.537000000    -0.674000000
H     6.734000000    -5.772000000    -0.498000000
O     4.905000000    -6.998000000    -3.374000000
H     4.109000000    -7.407000000    -3.036000000
H     5.239000000    -6.481000000    -2.640000000
O     6.584000000    -2.126000000    -4.285000000
H     6.936000000    -2.944000000    -4.635000000
H     6.367000000    -1.608000000    -5.060000000
O     0.166000000    -6.389000000    -3.137000000
H    -0.600000000    -6.756000000    -2.694000000
H     0.225000000    -5.492000000    -2.810000000
O     1.390000000    -9.250000000     0.425000000
H     1.703000000    -8.370000000     0.218000000
H     1.208000000    -9.226000000     1.365000000
O     7.343000000    -3.386000000    -0.908000000
H     6.395000000    -3.333000000    -1.025000000
H     7.461000000    -3.517000000     0.033000000
O     9.289000000    -5.980000000    -0.930000000
H     8.579000000    -5.700000000    -0.351000000
H     9.879000000    -5.227000000    -0.965000000
O     9.568000000    -1.800000000    -1.441000000
H     8.782000000    -2.336000000    -1.547000000
H    10.176000000    -2.358000000    -0.957000000
O     2.618000000    -8.118000000    -2.355000000
H     2.027000000    -7.457000000    -1.994000000
H     2.058000000    -8.879000000    -2.512000000
O     7.618000000    -7.513000000    -3.155000000
H     7.719000000    -8.458000000    -3.042000000
H     6.676000000    -7.383000000    -3.259000000
O    -0.361000000    -3.931000000    -1.565000000
H    -1.293000000    -3.925000000    -1.344000000
H     0.025000000    -3.271000000    -0.989000000
O     8.416000000    -4.043000000    -3.555000000
H     7.777000000    -3.604000000    -2.994000000
H     8.386000000    -4.960000000    -3.281000000
O     7.947000000    -4.910000000     1.557000000
H     7.129000000    -4.712000000     2.012000000
H     8.605000000    -4.945000000     2.251000000
O     4.678000000    -8.404000000    -0.431000000
H     4.038000000    -8.616000000    -1.110000000
H     5.170000000    -7.665000000    -0.788000000
O     4.891000000    -5.724000000     2.651000000
H     4.563000000    -5.181000000     1.934000000
H     4.408000000    -6.546000000     2.569000000
O     4.022000000    -3.141000000    -3.982000000
H     4.922000000    -2.821000000    -3.926000000
H     3.887000000    -3.622000000    -3.166000000
O     3.464000000    -6.265000000    -5.846000000
H     2.628000000    -6.510000000    -5.449000000
H     4.121000000    -6.524000000    -5.200000000
O     3.394000000    -8.024000000     2.404000000
H     2.473000000    -7.856000000     2.602000000
H     3.399000000    -8.269000000     1.479000000
