215
-1459.25014
C     4.812000000     1.662000000     1.408000000
H     4.742000000     1.818000000     2.482000000
C     3.876000000     2.320000000     0.514000000
C     4.113000000     2.222000000    -0.852000000
H     3.403000000     2.659000000    -1.549000000
C     2.543000000     2.990000000     0.982000000
O     2.545000000     3.436000000     2.269000000
H     1.722000000     2.276000000     0.823000000
O     2.218000000     4.200000000     0.243000000
C     0.925000000     4.455000000    -0.104000000
C     0.623000000     4.175000000    -1.441000000
H     1.384000000     3.707000000    -2.059000000
C    -0.678000000     4.194000000    -1.806000000
O    -0.992000000     3.782000000    -3.070000000
C    -1.730000000     4.441000000    -0.882000000
C    -3.144000000     4.400000000    -1.388000000
H    -3.720000000     5.008000000    -0.688000000
C    -3.732000000     3.022000000    -1.316000000
C    -4.384000000     2.573000000    -0.166000000
H    -4.525000000     3.270000000     0.656000000
H    -3.264000000     4.880000000    -2.362000000
C    -1.387000000     4.813000000     0.404000000
H    -2.086000000     5.210000000     1.136000000
C    -0.054000000     4.784000000     0.795000000
C     0.235000000     5.142000000     2.288000000
H    -0.615000000     5.731000000     2.640000000
H     1.214000000     5.621000000     2.365000000
C     0.316000000     3.859000000     3.032000000
C    -0.853000000     3.319000000     3.582000000
H    -1.813000000     3.778000000     3.361000000
C     1.482000000     3.089000000     3.031000000
C     1.530000000     1.906000000     3.739000000
H     2.485000000     1.406000000     3.878000000
C     0.471000000     1.431000000     4.439000000
O     0.646000000     0.188000000     5.090000000
C     0.109000000    -0.855000000     4.259000000
C     1.005000000    -2.056000000     4.294000000
C     0.475000000    -3.275000000     3.989000000
H    -0.597000000    -3.381000000     3.846000000
C     2.348000000    -1.904000000     4.510000000
H     2.818000000    -0.928000000     4.605000000
O    -1.261000000    -1.221000000     4.633000000
H     0.053000000    -0.556000000     3.202000000
C    -0.778000000     2.149000000     4.333000000
C    -2.055000000     1.674000000     5.015000000
H    -2.680000000     2.529000000     5.281000000
H    -1.895000000     1.068000000     5.909000000
C    -2.765000000     0.698000000     4.126000000
C    -3.823000000     1.063000000     3.279000000
H    -4.176000000     2.077000000     3.109000000
C    -2.360000000    -0.666000000     4.037000000
C    -2.929000000    -1.530000000     3.154000000
H    -2.639000000    -2.576000000     3.093000000
C    -3.923000000    -1.137000000     2.236000000
O    -4.418000000    -2.035000000     1.275000000
C    -3.955000000    -1.979000000    -0.153000000
C    -3.822000000    -3.326000000    -0.860000000
C    -3.100000000    -4.304000000    -0.200000000
H    -2.930000000    -4.184000000     0.866000000
C    -4.050000000    -3.364000000    -2.223000000
H    -4.523000000    -2.533000000    -2.739000000
O    -4.786000000    -1.076000000    -0.958000000
H    -2.993000000    -1.445000000    -0.130000000
C    -4.316000000     0.172000000     2.268000000
C    -5.342000000     0.721000000     1.298000000
H    -5.867000000     1.559000000     1.760000000
H    -6.105000000    -0.042000000     1.125000000
C    -4.736000000     1.193000000     0.047000000
C    -4.436000000     0.300000000    -0.936000000
C    -3.859000000     0.714000000    -2.139000000
H    -3.614000000     0.093000000    -2.997000000
C    -3.406000000     2.052000000    -2.292000000
O    -2.610000000     2.245000000    -3.405000000
C    -1.222000000     2.431000000    -3.287000000
H    -0.952000000     1.913000000    -2.356000000
C    -0.429000000     1.745000000    -4.412000000
C     0.635000000     2.310000000    -5.044000000
H     0.909000000     3.315000000    -4.735000000
C    -0.792000000     0.415000000    -4.807000000
H    -1.634000000    -0.117000000    -4.370000000
C    -0.094000000    -0.240000000    -5.824000000
O    -0.490000000    -1.516000000    -6.176000000
C     0.989000000     0.362000000    -6.453000000
H     1.514000000    -0.134000000    -7.265000000
C     1.329000000     1.624000000    -6.024000000
O     2.498000000     2.169000000    -6.525000000
C     3.501000000     2.571000000    -5.632000000
C     4.028000000     1.737000000    -4.634000000
H     3.943000000     0.654000000    -4.654000000
C     3.885000000     3.880000000    -5.738000000
H     3.414000000     4.606000000    -6.396000000
C     4.755000000     4.415000000    -4.787000000
H     5.102000000     5.444000000    -4.837000000
C     5.349000000     3.550000000    -3.798000000
H     6.035000000     3.946000000    -3.054000000
C     4.897000000     2.241000000    -3.676000000
O     5.399000000     1.358000000    -2.731000000
C     5.196000000     1.439000000    -1.359000000
C     6.118000000     0.868000000    -0.461000000
H     7.044000000     0.401000000    -0.788000000
C     5.834000000     0.896000000     0.890000000
O     6.814000000     0.335000000     1.707000000
C     6.464000000    -0.075000000     3.031000000
C     5.687000000    -1.241000000     3.159000000
H     5.404000000    -1.731000000     2.231000000
C     6.956000000     0.565000000     4.201000000
H     7.429000000     1.543000000     4.163000000
C     6.647000000    -0.006000000     5.428000000
H     6.869000000     0.579000000     6.317000000
C     5.803000000    -1.149000000     5.521000000
H     5.481000000    -1.545000000     6.481000000
C     5.290000000    -1.744000000     4.385000000
O     4.583000000    -2.953000000     4.523000000
C     3.196000000    -3.047000000     4.489000000
C     2.663000000    -4.281000000     4.357000000
H     3.344000000    -5.128000000     4.359000000
C     1.328000000    -4.416000000     3.963000000
O     0.881000000    -5.676000000     3.646000000
C    -0.334000000    -5.869000000     3.063000000
C    -0.359000000    -5.847000000     1.655000000
H     0.550000000    -5.820000000     1.059000000
C    -1.423000000    -6.275000000     3.782000000
H    -1.470000000    -6.300000000     4.868000000
C    -2.587000000    -6.586000000     3.137000000
H    -3.451000000    -6.891000000     3.722000000
C    -2.636000000    -6.550000000     1.714000000
H    -3.529000000    -6.884000000     1.191000000
C    -1.518000000    -6.137000000     1.003000000
O    -1.660000000    -6.195000000    -0.350000000
C    -2.675000000    -5.413000000    -0.952000000
C    -2.786000000    -5.464000000    -2.337000000
H    -2.298000000    -6.221000000    -2.946000000
C    -3.526000000    -4.426000000    -2.940000000
O    -3.750000000    -4.483000000    -4.299000000
C    -3.448000000    -3.455000000    -5.156000000
C    -4.363000000    -3.018000000    -6.030000000
H    -5.347000000    -3.476000000    -5.967000000
C    -4.074000000    -2.049000000    -6.951000000
H    -4.784000000    -1.790000000    -7.733000000
C    -2.707000000    -1.618000000    -7.031000000
H    -2.511000000    -0.786000000    -7.701000000
C    -1.755000000    -1.966000000    -6.055000000
C    -2.101000000    -3.027000000    -5.215000000
H    -1.363000000    -3.506000000    -4.577000000
C     2.269000000    -0.484000000    -1.308000000
H     2.904000000    -0.443000000    -2.189000000
C     1.077000000     0.200000000    -1.289000000
H     0.737000000     0.880000000    -2.065000000
C     0.180000000    -0.046000000    -0.260000000
H    -0.747000000     0.470000000    -0.296000000
C     0.505000000    -0.989000000     0.738000000
H    -0.327000000    -1.141000000     1.421000000
C     1.795000000    -1.574000000     0.830000000
H     2.000000000    -2.208000000     1.689000000
C     2.630000000    -1.342000000    -0.247000000
C     4.028000000    -1.970000000    -0.230000000
O     4.225000000    -2.845000000     0.613000000
O     4.784000000    -1.843000000    -1.157000000
O     3.049000000    -5.214000000    -0.033000000
H     3.638000000    -5.002000000     0.691000000
H     2.363000000    -4.548000000     0.014000000
O     4.082000000    -7.151000000    -3.773000000
H     4.017000000    -6.242000000    -3.481000000
H     3.177000000    -7.464000000    -3.784000000
O     6.427000000    -5.463000000    -0.190000000
H     5.942000000    -6.282000000    -0.088000000
H     6.432000000    -5.078000000     0.686000000
O     9.203000000    -6.295000000     0.020000000
H     9.529000000    -5.751000000     0.737000000
H     8.258000000    -6.141000000     0.013000000
O     6.221000000    -4.022000000    -3.809000000
H     5.404000000    -4.190000000    -3.338000000
H     6.222000000    -3.077000000    -3.957000000
O     6.134000000    -8.078000000    -1.724000000
H     5.655000000    -8.076000000    -0.896000000
H     5.540000000    -7.658000000    -2.346000000
O     1.204000000    -6.501000000    -1.708000000
H     0.616000000    -5.746000000    -1.694000000
H     1.964000000    -6.223000000    -1.198000000
O     7.229000000    -2.914000000    -0.996000000
H     6.417000000    -2.407000000    -0.997000000
H     6.960000000    -3.796000000    -1.252000000
O     6.796000000    -6.173000000     3.846000000
H     6.550000000    -7.065000000     3.602000000
H     6.492000000    -5.632000000     3.117000000
O     2.213000000    -3.645000000    -4.567000000
H     1.428000000    -4.172000000    -4.720000000
H     2.717000000    -4.147000000    -3.927000000
O     0.657000000    -3.856000000    -0.633000000
H     0.264000000    -3.394000000     0.107000000
H     0.577000000    -3.246000000    -1.366000000
O     8.781000000    -2.917000000     4.720000000
H     9.548000000    -2.404000000     4.466000000
H     8.083000000    -2.605000000     4.144000000
O     3.947000000    -4.400000000    -2.503000000
H     3.816000000    -4.847000000    -1.666000000
H     4.159000000    -3.498000000    -2.262000000
O     5.727000000    -4.210000000     2.391000000
H     5.233000000    -3.720000000     1.734000000
H     5.464000000    -3.822000000     3.226000000
O     8.348000000    -2.500000000     1.439000000
H     8.768000000    -1.683000000     1.169000000
H     7.862000000    -2.787000000     0.666000000
O     5.632000000    -1.494000000    -3.685000000
H     5.398000000    -0.574000000    -3.802000000
H     5.364000000    -1.698000000    -2.789000000
O     9.638000000    -1.520000000    -1.176000000
H     9.913000000    -2.250000000    -1.731000000
H     8.703000000    -1.668000000    -1.032000000
O     3.313000000    -2.128000000    -6.724000000
H     2.887000000    -2.232000000    -5.873000000
H     3.918000000    -1.397000000    -6.602000000
O     4.385000000    -7.644000000     0.548000000
H     3.927000000    -8.137000000     1.229000000
H     3.823000000    -6.888000000     0.381000000
