215
-1467.22917
C     4.098000000     2.738000000     1.656000000
H     3.803000000     2.030000000     2.427000000
C     3.208000000     3.668000000     1.153000000
C     3.691000000     4.530000000     0.162000000
H     3.056000000     5.311000000    -0.246000000
C     1.841000000     3.761000000     1.761000000
O     1.713000000     3.790000000     3.232000000
H     1.210000000     2.943000000     1.386000000
O     1.221000000     4.991000000     1.351000000
C    -0.068000000     4.911000000     0.802000000
C    -0.174000000     4.729000000    -0.542000000
H     0.697000000     4.809000000    -1.187000000
C    -1.341000000     4.320000000    -1.141000000
O    -1.165000000     3.816000000    -2.463000000
C    -2.504000000     4.211000000    -0.343000000
C    -3.819000000     3.787000000    -1.005000000
H    -4.666000000     4.305000000    -0.550000000
C    -4.041000000     2.290000000    -0.965000000
C    -4.740000000     1.647000000     0.042000000
H    -5.027000000     2.242000000     0.905000000
H    -3.807000000     4.037000000    -2.068000000
C    -2.401000000     4.501000000     1.000000000
H    -3.315000000     4.512000000     1.590000000
C    -1.199000000     4.768000000     1.613000000
C    -1.124000000     4.772000000     3.134000000
H    -2.070000000     5.073000000     3.588000000
H    -0.323000000     5.475000000     3.372000000
C    -0.700000000     3.362000000     3.689000000
C    -1.612000000     2.426000000     4.133000000
H    -2.678000000     2.626000000     4.205000000
C     0.696000000     3.029000000     3.720000000
C     1.053000000     1.726000000     4.198000000
H     2.100000000     1.461000000     4.079000000
C     0.096000000     0.770000000     4.592000000
O     0.491000000    -0.551000000     4.758000000
C     0.152000000    -1.488000000     3.701000000
C     1.330000000    -2.368000000     3.365000000
C     1.119000000    -3.537000000     2.642000000
H     0.115000000    -3.851000000     2.367000000
C     2.692000000    -2.127000000     3.846000000
H     2.886000000    -1.210000000     4.396000000
O    -0.995000000    -2.193000000     4.160000000
H    -0.080000000    -1.011000000     2.737000000
C    -1.222000000     1.201000000     4.583000000
C    -2.236000000     0.207000000     4.995000000
H    -3.030000000     0.811000000     5.438000000
H    -1.865000000    -0.508000000     5.733000000
C    -2.834000000    -0.640000000     3.877000000
C    -3.968000000    -0.155000000     3.126000000
H    -4.296000000     0.873000000     3.252000000
C    -2.205000000    -1.845000000     3.602000000
C    -2.719000000    -2.664000000     2.548000000
H    -2.380000000    -3.677000000     2.347000000
C    -3.826000000    -2.215000000     1.825000000
O    -4.255000000    -2.997000000     0.790000000
C    -3.720000000    -2.608000000    -0.459000000
C    -3.318000000    -3.814000000    -1.302000000
C    -2.973000000    -4.999000000    -0.589000000
H    -3.037000000    -5.060000000     0.494000000
C    -3.181000000    -3.766000000    -2.690000000
H    -3.298000000    -2.786000000    -3.147000000
O    -4.709000000    -1.850000000    -1.205000000
H    -2.778000000    -2.053000000    -0.338000000
C    -4.463000000    -0.984000000     2.106000000
C    -5.539000000    -0.371000000     1.212000000
H    -6.132000000     0.386000000     1.730000000
H    -6.309000000    -1.124000000     1.028000000
C    -4.898000000     0.270000000    -0.008000000
C    -4.458000000    -0.494000000    -1.109000000
C    -3.784000000     0.159000000    -2.135000000
H    -3.431000000    -0.377000000    -3.012000000
C    -3.487000000     1.545000000    -2.052000000
O    -2.710000000     2.206000000    -3.036000000
C    -1.360000000     2.489000000    -2.652000000
H    -1.073000000     1.923000000    -1.753000000
C    -0.368000000     1.940000000    -3.716000000
C     0.923000000     2.529000000    -3.873000000
H     1.133000000     3.519000000    -3.477000000
C    -0.620000000     0.656000000    -4.377000000
H    -1.526000000     0.098000000    -4.158000000
C     0.365000000     0.150000000    -5.215000000
O     0.058000000    -0.950000000    -5.975000000
C     1.549000000     0.779000000    -5.415000000
H     2.277000000     0.417000000    -6.136000000
C     1.905000000     1.927000000    -4.688000000
O     3.184000000     2.317000000    -4.911000000
C     3.597000000     3.586000000    -4.558000000
C     4.294000000     3.695000000    -3.363000000
H     4.424000000     2.748000000    -2.846000000
C     3.484000000     4.705000000    -5.388000000
H     2.958000000     4.684000000    -6.339000000
C     3.975000000     5.916000000    -4.924000000
H     3.680000000     6.777000000    -5.518000000
C     4.523000000     5.993000000    -3.661000000
H     4.837000000     6.952000000    -3.257000000
C     4.689000000     4.889000000    -2.856000000
O     5.214000000     5.038000000    -1.601000000
C     4.857000000     4.208000000    -0.534000000
C     5.664000000     3.178000000    -0.152000000
H     6.617000000     2.970000000    -0.631000000
C     5.329000000     2.525000000     1.010000000
O     6.104000000     1.357000000     1.237000000
C     6.143000000     0.693000000     2.385000000
C     5.529000000    -0.596000000     2.394000000
H     5.116000000    -1.011000000     1.478000000
C     6.751000000     1.197000000     3.552000000
H     7.241000000     2.166000000     3.500000000
C     6.681000000     0.427000000     4.717000000
H     7.088000000     0.885000000     5.614000000
C     5.984000000    -0.790000000     4.677000000
H     5.801000000    -1.337000000     5.598000000
C     5.506000000    -1.350000000     3.538000000
O     4.998000000    -2.645000000     3.603000000
C     3.671000000    -2.997000000     3.412000000
C     3.457000000    -4.117000000     2.707000000
H     4.273000000    -4.772000000     2.411000000
C     2.157000000    -4.401000000     2.269000000
O     1.973000000    -5.657000000     1.653000000
C     0.677000000    -6.307000000     1.660000000
C    -0.077000000    -6.490000000     0.503000000
H     0.325000000    -6.128000000    -0.440000000
C     0.144000000    -6.769000000     2.840000000
H     0.704000000    -6.745000000     3.772000000
C    -1.104000000    -7.441000000     2.935000000
H    -1.617000000    -7.728000000     3.849000000
C    -1.836000000    -7.619000000     1.755000000
H    -2.853000000    -7.992000000     1.671000000
C    -1.327000000    -7.065000000     0.559000000
O    -1.982000000    -7.226000000    -0.643000000
C    -2.504000000    -6.126000000    -1.297000000
C    -2.392000000    -6.110000000    -2.703000000
H    -1.942000000    -6.880000000    -3.324000000
C    -2.743000000    -4.905000000    -3.406000000
O    -2.649000000    -4.849000000    -4.769000000
C    -2.488000000    -3.601000000    -5.376000000
C    -3.382000000    -3.244000000    -6.379000000
H    -4.119000000    -3.994000000    -6.655000000
C    -3.197000000    -2.097000000    -7.110000000
H    -3.942000000    -1.863000000    -7.866000000
C    -2.055000000    -1.343000000    -7.011000000
H    -1.979000000    -0.479000000    -7.666000000
C    -1.139000000    -1.664000000    -5.959000000
C    -1.349000000    -2.783000000    -5.203000000
H    -0.610000000    -3.025000000    -4.444000000
C     2.996000000     0.734000000    -1.193000000
H     3.941000000     1.085000000    -1.600000000
C     1.881000000     1.456000000    -0.758000000
H     1.806000000     2.520000000    -0.970000000
C     0.748000000     0.848000000    -0.270000000
H    -0.050000000     1.418000000     0.100000000
C     0.660000000    -0.530000000    -0.210000000
H    -0.267000000    -1.011000000     0.090000000
C     1.713000000    -1.268000000    -0.704000000
H     1.668000000    -2.354000000    -0.746000000
C     2.868000000    -0.681000000    -1.268000000
C     3.859000000    -1.523000000    -2.112000000
O     3.749000000    -2.766000000    -2.155000000
O     4.810000000    -1.079000000    -2.676000000
O     9.911000000    -1.186000000    -3.335000000
H    10.354000000    -1.484000000    -2.541000000
H     9.012000000    -1.010000000    -3.056000000
O     4.839000000    -4.025000000    -0.152000000
H     5.522000000    -3.360000000    -0.064000000
H     4.226000000    -3.656000000    -0.788000000
O     0.989000000    -6.376000000    -3.234000000
H     1.527000000    -6.415000000    -2.444000000
H     1.128000000    -5.493000000    -3.576000000
O     8.634000000     2.557000000    -2.693000000
H     7.815000000     2.083000000    -2.543000000
H     8.460000000     3.097000000    -3.464000000
O     8.498000000    -0.140000000    -0.603000000
H     8.738000000     0.276000000    -1.431000000
H     8.216000000     0.583000000    -0.044000000
O     1.633000000    -3.748000000    -3.632000000
H     1.578000000    -3.105000000    -4.339000000
H     2.375000000    -3.458000000    -3.101000000
O     6.949000000    -2.520000000     0.075000000
H     7.428000000    -3.210000000     0.535000000
H     7.515000000    -1.751000000     0.141000000
O     4.647000000    -4.640000000    -3.720000000
H     5.430000000    -4.964000000    -3.273000000
H     4.356000000    -3.900000000    -3.187000000
O     7.639000000    -5.239000000    -5.482000000
H     7.236000000    -5.031000000    -4.639000000
H     8.333000000    -5.863000000    -5.268000000
O     6.154000000    -6.462000000     0.277000000
H     5.737000000    -5.612000000     0.139000000
H     7.066000000    -6.253000000     0.478000000
O     3.150000000    -5.649000000    -5.813000000
H     3.918000000    -6.007000000    -6.258000000
H     3.486000000    -5.322000000    -4.979000000
O     1.257000000    -4.157000000    -6.954000000
H     1.923000000    -4.423000000    -6.319000000
H     0.783000000    -4.964000000    -7.156000000
O     4.010000000    -1.763000000    -8.414000000
H     3.063000000    -1.671000000    -8.517000000
H     4.117000000    -2.211000000    -7.574000000
O     6.220000000     1.101000000    -2.917000000
H     5.697000000     0.299000000    -2.924000000
H     6.301000000     1.342000000    -3.840000000
O     4.149000000    -1.395000000    -5.554000000
H     4.338000000    -0.493000000    -5.294000000
H     4.124000000    -1.882000000    -4.730000000
O     7.218000000    -5.090000000    -2.757000000
H     7.948000000    -5.156000000    -2.142000000
H     7.132000000    -4.153000000    -2.928000000
O     7.762000000    -1.165000000    -7.065000000
H     7.753000000    -0.208000000    -7.082000000
H     7.223000000    -1.396000000    -6.308000000
O     7.183000000    -2.138000000    -2.462000000
H     6.341000000    -1.779000000    -2.743000000
H     7.096000000    -2.238000000    -1.514000000
O     3.159000000    -6.331000000    -1.251000000
H     2.903000000    -5.827000000    -0.478000000
H     4.111000000    -6.405000000    -1.183000000
