215
-1451.22243
C     4.381000000     2.131000000     2.454000000
H     3.936000000     1.911000000     3.421000000
C     3.728000000     3.056000000     1.682000000
C     4.250000000     3.456000000     0.472000000
H     3.598000000     4.098000000    -0.113000000
C     2.235000000     3.318000000     1.980000000
O     1.957000000     3.385000000     3.358000000
H     1.731000000     2.463000000     1.504000000
O     1.757000000     4.531000000     1.342000000
C     0.480000000     4.594000000     0.779000000
C     0.497000000     4.441000000    -0.579000000
H     1.465000000     4.396000000    -1.072000000
C    -0.723000000     4.326000000    -1.273000000
O    -0.555000000     3.879000000    -2.562000000
C    -1.942000000     4.472000000    -0.586000000
C    -3.227000000     4.216000000    -1.286000000
H    -4.042000000     4.786000000    -0.836000000
C    -3.540000000     2.731000000    -1.417000000
C    -4.296000000     2.140000000    -0.397000000
H    -4.553000000     2.730000000     0.479000000
H    -3.044000000     4.656000000    -2.268000000
C    -1.909000000     4.681000000     0.763000000
H    -2.826000000     4.561000000     1.334000000
C    -0.671000000     4.679000000     1.525000000
C    -0.710000000     4.731000000     3.041000000
H    -1.625000000     5.118000000     3.493000000
H     0.065000000     5.409000000     3.404000000
C    -0.485000000     3.364000000     3.627000000
C    -1.649000000     2.669000000     4.002000000
H    -2.628000000     3.140000000     4.017000000
C     0.754000000     2.742000000     3.678000000
C     0.848000000     1.420000000     4.081000000
H     1.793000000     0.885000000     4.132000000
C    -0.297000000     0.732000000     4.439000000
O    -0.055000000    -0.611000000     4.689000000
C    -0.487000000    -1.542000000     3.778000000
C     0.448000000    -2.672000000     3.637000000
C     0.085000000    -4.002000000     3.390000000
H    -0.954000000    -4.270000000     3.213000000
C     1.830000000    -2.414000000     3.645000000
H     2.212000000    -1.397000000     3.610000000
O    -1.838000000    -2.039000000     4.294000000
H    -0.557000000    -0.957000000     2.849000000
C    -1.588000000     1.326000000     4.437000000
C    -2.852000000     0.601000000     4.854000000
H    -3.531000000     1.348000000     5.269000000
H    -2.575000000    -0.021000000     5.708000000
C    -3.432000000    -0.291000000     3.716000000
C    -4.363000000     0.259000000     2.797000000
H    -4.696000000     1.294000000     2.823000000
C    -2.847000000    -1.546000000     3.482000000
C    -3.243000000    -2.342000000     2.365000000
H    -2.768000000    -3.281000000     2.092000000
C    -4.104000000    -1.770000000     1.440000000
O    -4.313000000    -2.477000000     0.276000000
C    -3.728000000    -1.928000000    -0.946000000
C    -3.218000000    -3.127000000    -1.765000000
C    -2.599000000    -4.255000000    -1.239000000
H    -2.408000000    -4.245000000    -0.169000000
C    -3.425000000    -3.158000000    -3.123000000
H    -3.991000000    -2.381000000    -3.628000000
O    -4.647000000    -1.175000000    -1.728000000
H    -2.864000000    -1.272000000    -0.767000000
C    -4.633000000    -0.421000000     1.620000000
C    -5.531000000     0.190000000     0.575000000
H    -6.169000000     0.936000000     1.054000000
H    -6.205000000    -0.560000000     0.156000000
C    -4.707000000     0.857000000    -0.537000000
C    -4.398000000     0.137000000    -1.686000000
C    -3.557000000     0.674000000    -2.670000000
H    -3.245000000     0.186000000    -3.590000000
C    -3.119000000     2.008000000    -2.550000000
O    -2.237000000     2.487000000    -3.478000000
C    -0.835000000     2.498000000    -2.987000000
H    -0.755000000     1.796000000    -2.143000000
C     0.174000000     1.988000000    -4.043000000
C     1.416000000     2.617000000    -4.304000000
H     1.634000000     3.529000000    -3.753000000
C    -0.071000000     0.759000000    -4.671000000
H    -1.068000000     0.340000000    -4.568000000
C     0.884000000     0.191000000    -5.533000000
O     0.659000000    -1.022000000    -6.112000000
C     2.060000000     0.852000000    -5.722000000
H     2.875000000     0.269000000    -6.144000000
C     2.352000000     2.067000000    -5.176000000
O     3.680000000     2.481000000    -5.197000000
C     4.183000000     3.327000000    -4.280000000
C     4.814000000     2.829000000    -3.189000000
H     5.027000000     1.764000000    -3.142000000
C     4.094000000     4.695000000    -4.485000000
H     3.607000000     5.068000000    -5.383000000
C     4.605000000     5.679000000    -3.637000000
H     4.538000000     6.753000000    -3.794000000
C     5.119000000     5.171000000    -2.466000000
H     5.396000000     5.867000000    -1.679000000
C     5.287000000     3.818000000    -2.251000000
O     6.034000000     3.594000000    -1.090000000
C     5.510000000     3.087000000     0.067000000
C     6.289000000     2.340000000     0.909000000
H     7.311000000     2.089000000     0.638000000
C     5.687000000     1.783000000     2.048000000
O     6.394000000     1.088000000     3.007000000
C     5.945000000     0.034000000     3.760000000
C     5.350000000    -1.096000000     3.234000000
H     5.246000000    -1.230000000     2.161000000
C     6.163000000     0.036000000     5.158000000
H     6.747000000     0.774000000     5.702000000
C     5.660000000    -0.985000000     5.990000000
H     5.796000000    -0.988000000     7.069000000
C     4.911000000    -2.007000000     5.388000000
H     4.572000000    -2.758000000     6.097000000
C     4.823000000    -2.118000000     4.035000000
O     4.177000000    -3.214000000     3.351000000
C     2.826000000    -3.429000000     3.497000000
C     2.385000000    -4.704000000     3.311000000
H     3.079000000    -5.529000000     3.170000000
C     1.040000000    -4.978000000     3.209000000
O     0.647000000    -6.319000000     3.045000000
C    -0.372000000    -6.569000000     2.212000000
C    -0.355000000    -6.207000000     0.843000000
H     0.535000000    -5.685000000     0.501000000
C    -1.495000000    -7.123000000     2.805000000
H    -1.532000000    -7.283000000     3.879000000
C    -2.640000000    -7.377000000     1.971000000
H    -3.605000000    -7.709000000     2.347000000
C    -2.559000000    -7.060000000     0.618000000
H    -3.390000000    -7.222000000    -0.062000000
C    -1.421000000    -6.566000000    -0.016000000
O    -1.342000000    -6.302000000    -1.397000000
C    -2.051000000    -5.277000000    -1.970000000
C    -2.253000000    -5.239000000    -3.380000000
H    -1.932000000    -6.040000000    -4.042000000
C    -2.884000000    -4.130000000    -3.936000000
O    -3.072000000    -3.951000000    -5.254000000
C    -2.461000000    -2.919000000    -5.988000000
C    -3.222000000    -2.202000000    -6.947000000
H    -4.268000000    -2.467000000    -7.080000000
C    -2.667000000    -1.129000000    -7.745000000
H    -3.304000000    -0.527000000    -8.388000000
C    -1.395000000    -0.738000000    -7.362000000
H    -0.879000000     0.123000000    -7.779000000
C    -0.581000000    -1.479000000    -6.443000000
C    -1.095000000    -2.622000000    -5.853000000
H    -0.484000000    -3.140000000    -5.118000000
C     3.042000000     0.085000000    -0.309000000
H     3.863000000     0.745000000    -0.579000000
C     1.692000000     0.560000000    -0.245000000
H     1.498000000     1.593000000    -0.523000000
C     0.627000000    -0.293000000     0.092000000
H    -0.415000000     0.123000000     0.123000000
C     0.931000000    -1.605000000     0.404000000
H     0.047000000    -2.137000000     0.745000000
C     2.257000000    -2.155000000     0.331000000
H     2.476000000    -3.188000000     0.592000000
C     3.287000000    -1.288000000    -0.143000000
C     4.651000000    -1.934000000    -0.292000000
O     4.729000000    -3.159000000    -0.541000000
O     5.619000000    -1.272000000    -0.508000000
O     9.853000000    -2.013000000     1.996000000
H    10.291000000    -1.224000000     2.315000000
H     9.785000000    -2.577000000     2.767000000
O     5.957000000    -6.520000000    -4.371000000
H     6.830000000    -6.908000000    -4.305000000
H     6.016000000    -5.710000000    -3.864000000
O     3.236000000    -5.172000000    -0.705000000
H     3.779000000    -4.436000000    -0.422000000
H     2.590000000    -4.781000000    -1.293000000
O     1.698000000    -1.448000000    -2.666000000
H     1.405000000    -0.625000000    -3.059000000
H     1.711000000    -1.273000000    -1.725000000
O     9.418000000    -3.719000000    -0.036000000
H     9.474000000    -3.126000000     0.713000000
H     8.514000000    -4.033000000    -0.026000000
O    10.486000000    -1.175000000    -2.541000000
H    11.101000000    -0.730000000    -1.958000000
H     9.670000000    -0.682000000    -2.450000000
O     6.077000000    -3.761000000    -2.872000000
H     6.474000000    -2.903000000    -3.021000000
H     5.450000000    -3.616000000    -2.164000000
O     7.547000000    -6.778000000    -1.372000000
H     7.522000000    -5.897000000    -0.999000000
H     7.251000000    -7.347000000    -0.662000000
O     3.941000000    -7.164000000     1.272000000
H     3.975000000    -6.534000000     0.551000000
H     3.203000000    -7.734000000     1.057000000
O     8.179000000    -0.388000000     0.078000000
H     7.323000000    -0.739000000    -0.168000000
H     8.471000000    -0.948000000     0.797000000
O     9.891000000     1.864000000     0.635000000
H     9.262000000     1.236000000     0.279000000
H    10.013000000     1.591000000     1.544000000
O     3.823000000    -1.421000000    -4.609000000
H     4.477000000    -0.847000000    -4.211000000
H     3.283000000    -1.716000000    -3.876000000
O     8.343000000     0.655000000    -3.608000000
H     8.247000000     1.606000000    -3.653000000
H     8.510000000     0.389000000    -4.512000000
O     1.029000000    -4.247000000    -2.307000000
H     0.707000000    -3.380000000    -2.553000000
H     1.407000000    -4.600000000    -3.113000000
O     7.905000000    -4.171000000    -5.135000000
H     7.866000000    -4.499000000    -6.033000000
H     6.991000000    -4.019000000    -4.895000000
O     6.805000000    -4.729000000     0.192000000
H     6.087000000    -4.156000000    -0.076000000
H     6.552000000    -5.038000000     1.062000000
O     5.858000000    -0.312000000    -2.925000000
H     6.742000000    -0.018000000    -3.148000000
H     5.925000000    -0.599000000    -2.014000000
O     6.286000000    -5.150000000     3.053000000
H     5.885000000    -5.956000000     3.377000000
H     5.556000000    -4.649000000     2.688000000
O     3.376000000    -7.816000000    -2.521000000
H     3.251000000    -6.967000000    -2.096000000
H     3.965000000    -7.634000000    -3.252000000
