215
-1467.86206
C     4.549000000    -0.929000000    -2.487000000
H     4.303000000    -1.974000000    -2.320000000
C     4.610000000    -0.020000000    -1.442000000
C     4.948000000     1.298000000    -1.680000000
H     4.898000000     1.983000000    -0.837000000
C     4.199000000    -0.548000000    -0.042000000
O     4.578000000    -1.913000000     0.188000000
H     3.109000000    -0.440000000     0.059000000
O     4.763000000     0.345000000     1.021000000
C     4.022000000     0.676000000     2.073000000
C     3.302000000     1.887000000     1.972000000
H     3.640000000     2.560000000     1.187000000
C     2.379000000     2.197000000     2.951000000
O     1.665000000     3.381000000     2.939000000
C     2.101000000     1.341000000     4.027000000
C     1.139000000     1.704000000     5.073000000
H     1.511000000     1.142000000     5.931000000
C    -0.285000000     1.521000000     4.690000000
C    -0.825000000     0.248000000     4.906000000
H    -0.157000000    -0.527000000     5.272000000
H     1.278000000     2.745000000     5.373000000
C     2.822000000     0.143000000     4.125000000
H     2.542000000    -0.511000000     4.947000000
C     3.714000000    -0.218000000     3.088000000
C     4.328000000    -1.623000000     3.078000000
H     4.226000000    -1.923000000     4.123000000
H     5.412000000    -1.573000000     2.954000000
C     3.577000000    -2.644000000     2.178000000
C     2.478000000    -3.267000000     2.828000000
H     2.206000000    -3.160000000     3.875000000
C     3.616000000    -2.682000000     0.806000000
C     2.835000000    -3.574000000     0.076000000
H     3.076000000    -3.778000000    -0.964000000
C     1.873000000    -4.324000000     0.779000000
O     1.003000000    -4.983000000    -0.062000000
C    -0.081000000    -4.216000000    -0.434000000
C    -0.380000000    -4.305000000    -1.905000000
C    -1.725000000    -4.276000000    -2.352000000
H    -2.578000000    -4.252000000    -1.678000000
C     0.635000000    -4.436000000    -2.856000000
H     1.678000000    -4.337000000    -2.564000000
O    -1.148000000    -4.762000000     0.371000000
H     0.049000000    -3.188000000    -0.066000000
C     1.658000000    -4.160000000     2.126000000
C     0.499000000    -4.851000000     2.789000000
H     0.751000000    -4.844000000     3.851000000
H     0.251000000    -5.884000000     2.536000000
C    -0.747000000    -4.064000000     2.700000000
C    -1.247000000    -3.286000000     3.729000000
H    -0.683000000    -3.291000000     4.658000000
C    -1.451000000    -4.058000000     1.506000000
C    -2.614000000    -3.293000000     1.300000000
H    -3.149000000    -3.308000000     0.354000000
C    -3.053000000    -2.415000000     2.299000000
O    -4.089000000    -1.597000000     2.141000000
C    -3.853000000    -0.158000000     1.849000000
C    -4.652000000     0.347000000     0.667000000
C    -4.687000000    -0.365000000    -0.495000000
H    -4.309000000    -1.384000000    -0.500000000
C    -5.181000000     1.651000000     0.693000000
H    -5.227000000     2.183000000     1.640000000
O    -4.062000000     0.547000000     3.118000000
H    -2.833000000     0.017000000     1.475000000
C    -2.388000000    -2.498000000     3.548000000
C    -2.729000000    -1.518000000     4.733000000
H    -2.387000000    -1.950000000     5.676000000
H    -3.812000000    -1.388000000     4.785000000
C    -2.117000000    -0.144000000     4.461000000
C    -2.873000000     0.839000000     3.755000000
C    -2.275000000     2.131000000     3.514000000
H    -2.894000000     2.877000000     3.022000000
C    -1.020000000     2.411000000     3.893000000
O    -0.604000000     3.560000000     3.341000000
C     0.368000000     3.460000000     2.292000000
H     0.150000000     2.511000000     1.781000000
C     0.196000000     4.537000000     1.171000000
C     1.194000000     4.650000000     0.162000000
H     2.134000000     4.106000000     0.180000000
C    -1.053000000     5.196000000     1.088000000
H    -1.768000000     5.124000000     1.904000000
C    -1.302000000     6.009000000    -0.017000000
O    -2.486000000     6.742000000    -0.184000000
C    -0.270000000     6.229000000    -0.965000000
H    -0.588000000     6.849000000    -1.800000000
C     0.935000000     5.531000000    -0.886000000
O     1.794000000     5.696000000    -1.905000000
C     3.135000000     5.292000000    -1.802000000
C     3.727000000     4.441000000    -2.640000000
H     3.091000000     4.086000000    -3.447000000
C     3.971000000     6.041000000    -0.962000000
H     3.590000000     6.908000000    -0.427000000
C     5.348000000     5.752000000    -0.842000000
H     5.930000000     6.138000000    -0.008000000
C     5.927000000     4.772000000    -1.640000000
H     6.951000000     4.449000000    -1.472000000
C     5.092000000     4.086000000    -2.501000000
O     5.625000000     3.037000000    -3.245000000
C     5.338000000     1.756000000    -2.963000000
C     5.417000000     0.801000000    -4.020000000
H     5.787000000     1.165000000    -4.975000000
C     4.989000000    -0.496000000    -3.738000000
O     5.129000000    -1.409000000    -4.790000000
C     4.547000000    -2.687000000    -4.825000000
C     3.160000000    -2.763000000    -4.966000000
H     2.591000000    -1.866000000    -5.197000000
C     5.324000000    -3.799000000    -4.388000000
H     6.381000000    -3.645000000    -4.188000000
C     4.725000000    -5.067000000    -4.279000000
H     5.328000000    -5.913000000    -3.959000000
C     3.367000000    -5.192000000    -4.542000000
H     2.904000000    -6.167000000    -4.417000000
C     2.621000000    -4.050000000    -4.822000000
O     1.273000000    -4.298000000    -5.124000000
C     0.287000000    -4.414000000    -4.151000000
C    -1.006000000    -4.368000000    -4.637000000
H    -1.141000000    -4.408000000    -5.714000000
C    -2.070000000    -4.368000000    -3.695000000
O    -3.327000000    -4.377000000    -4.138000000
C    -4.406000000    -3.851000000    -3.504000000
C    -4.338000000    -2.526000000    -3.196000000
H    -3.489000000    -1.881000000    -3.407000000
C    -5.562000000    -4.556000000    -3.380000000
H    -5.637000000    -5.584000000    -3.725000000
C    -6.725000000    -3.915000000    -2.851000000
H    -7.647000000    -4.487000000    -2.783000000
C    -6.688000000    -2.581000000    -2.471000000
H    -7.589000000    -2.082000000    -2.124000000
C    -5.493000000    -1.868000000    -2.710000000
O    -5.576000000    -0.483000000    -2.795000000
C    -5.315000000     0.196000000    -1.625000000
C    -5.764000000     1.518000000    -1.619000000
H    -6.312000000     1.905000000    -2.475000000
C    -5.717000000     2.263000000    -0.435000000
O    -6.118000000     3.540000000    -0.399000000
C    -5.416000000     4.483000000     0.313000000
C    -5.980000000     5.083000000     1.393000000
H    -6.826000000     4.578000000     1.852000000
C    -5.384000000     6.240000000     1.971000000
H    -5.725000000     6.580000000     2.945000000
C    -4.210000000     6.819000000     1.482000000
H    -3.773000000     7.672000000     1.994000000
C    -3.639000000     6.192000000     0.354000000
C    -4.236000000     5.051000000    -0.258000000
H    -3.804000000     4.672000000    -1.181000000
C    -0.341000000    -0.668000000    -2.106000000
H    -0.873000000    -1.473000000    -2.606000000
C    -0.459000000    -0.531000000    -0.767000000
H    -1.034000000    -1.252000000    -0.191000000
C     0.399000000     0.348000000    -0.103000000
H     0.387000000     0.494000000     0.993000000
C     1.256000000     1.168000000    -0.872000000
H     1.834000000     1.952000000    -0.389000000
C     1.248000000     1.133000000    -2.268000000
H     1.948000000     1.814000000    -2.744000000
C     0.462000000     0.198000000    -2.890000000
C     0.337000000     0.200000000    -4.394000000
O     0.905000000     0.978000000    -5.150000000
O    -0.446000000    -0.590000000    -4.879000000
O     1.670000000    -0.552000000    -7.212000000
H     1.002000000    -1.203000000    -6.998000000
H     1.554000000     0.135000000    -6.555000000
O    -0.846000000    -2.102000000    -6.975000000
H    -1.467000000    -1.647000000    -7.544000000
H    -0.853000000    -1.599000000    -6.161000000
O     0.853000000    -3.811000000    -7.941000000
H     0.805000000    -3.766000000    -6.986000000
H     0.088000000    -3.321000000    -8.243000000
O    -0.298000000     4.958000000    -7.463000000
H     0.234000000     5.753000000    -7.483000000
H    -0.939000000     5.080000000    -8.163000000
O    -2.156000000     3.183000000    -2.404000000
H    -1.865000000     3.815000000    -3.061000000
H    -1.372000000     2.992000000    -1.890000000
O    -4.410000000     3.708000000    -3.986000000
H    -3.742000000     3.542000000    -3.321000000
H    -3.916000000     3.837000000    -4.796000000
O    -3.013000000    -0.569000000    -7.492000000
H    -3.148000000    -0.265000000    -6.595000000
H    -3.397000000     0.117000000    -8.038000000
O     3.165000000     2.330000000    -5.705000000
H     2.989000000     3.265000000    -5.592000000
H     2.322000000     1.907000000    -5.543000000
O     2.424000000     2.798000000    -8.946000000
H     3.219000000     2.287000000    -9.102000000
H     2.259000000     2.704000000    -8.008000000
O     4.023000000    -1.179000000    -8.790000000
H     3.274000000    -0.804000000    -8.327000000
H     4.785000000    -0.749000000    -8.402000000
O    -0.838000000     2.354000000    -6.468000000
H    -0.470000000     2.726000000    -7.269000000
H    -0.174000000     1.736000000    -6.163000000
O    -5.814000000     1.011000000    -5.279000000
H    -4.903000000     1.254000000    -5.115000000
H    -6.051000000     0.456000000    -4.535000000
O    -3.958000000    -2.986000000    -6.875000000
H    -4.632000000    -2.865000000    -6.205000000
H    -3.584000000    -2.113000000    -6.999000000
O    -0.005000000     2.835000000   -10.369000000
H     0.776000000     2.784000000    -9.819000000
H     0.332000000     2.828000000   -11.265000000
O    -3.523000000     2.950000000    -6.578000000
H    -3.732000000     2.436000000    -7.358000000
H    -2.648000000     2.655000000    -6.325000000
O     5.729000000     3.389000000    -7.138000000
H     5.804000000     2.588000000    -7.657000000
H     4.932000000     3.266000000    -6.622000000
O    -2.859000000     0.857000000    -4.446000000
H    -2.613000000     1.567000000    -3.852000000
H    -2.038000000     0.400000000    -4.627000000
O     1.934000000     4.729000000    -5.754000000
H     1.141000000     4.806000000    -6.284000000
H     2.583000000     5.261000000    -6.215000000
O    -1.740000000     4.941000000    -4.684000000
H    -1.619000000     4.608000000    -5.573000000
H    -1.931000000     5.871000000    -4.801000000
