215
-1443.88835
C     3.579000000     1.380000000     2.603000000
H     3.237000000     0.704000000     3.383000000
C     2.726000000     2.433000000     2.257000000
C     3.134000000     3.368000000     1.284000000
H     2.473000000     4.101000000     0.828000000
C     1.323000000     2.535000000     2.831000000
O     1.202000000     1.911000000     4.113000000
H     0.737000000     1.970000000     2.090000000
O     0.834000000     3.851000000     2.871000000
C    -0.430000000     4.105000000     2.374000000
C    -0.537000000     4.489000000     1.019000000
H     0.313000000     4.883000000     0.467000000
C    -1.745000000     4.369000000     0.331000000
O    -1.744000000     4.722000000    -0.956000000
C    -2.883000000     3.887000000     0.947000000
C    -4.258000000     3.739000000     0.248000000
H    -5.040000000     3.784000000     1.008000000
C    -4.295000000     2.407000000    -0.489000000
C    -4.880000000     1.291000000     0.082000000
H    -5.320000000     1.363000000     1.073000000
H    -4.476000000     4.615000000    -0.365000000
C    -2.789000000     3.455000000     2.263000000
H    -3.623000000     2.976000000     2.769000000
C    -1.575000000     3.505000000     3.002000000
C    -1.510000000     2.856000000     4.365000000
H    -2.427000000     3.095000000     4.908000000
H    -0.720000000     3.400000000     4.888000000
C    -1.096000000     1.389000000     4.304000000
C    -2.120000000     0.438000000     4.577000000
H    -3.193000000     0.588000000     4.486000000
C     0.259000000     1.005000000     4.363000000
C     0.586000000    -0.355000000     4.341000000
H     1.587000000    -0.736000000     4.159000000
C    -0.351000000    -1.325000000     4.600000000
O    -0.078000000    -2.623000000     4.394000000
C    -0.160000000    -3.196000000     3.070000000
C     1.011000000    -4.055000000     2.772000000
C     0.970000000    -5.016000000     1.821000000
H     0.057000000    -5.260000000     1.284000000
C     2.255000000    -3.658000000     3.328000000
H     2.278000000    -2.777000000     3.964000000
O    -1.406000000    -3.964000000     2.976000000
H    -0.057000000    -2.330000000     2.399000000
C    -1.686000000    -0.909000000     4.593000000
C    -2.759000000    -1.949000000     4.481000000
H    -3.644000000    -1.604000000     5.020000000
H    -2.395000000    -2.789000000     5.076000000
C    -3.055000000    -2.274000000     3.023000000
C    -3.975000000    -1.448000000     2.292000000
H    -4.486000000    -0.596000000     2.733000000
C    -2.439000000    -3.325000000     2.338000000
C    -2.681000000    -3.531000000     1.004000000
H    -2.136000000    -4.335000000     0.516000000
C    -3.517000000    -2.749000000     0.284000000
O    -3.636000000    -2.916000000    -1.040000000
C    -3.028000000    -1.998000000    -1.951000000
C    -1.997000000    -2.693000000    -2.872000000
C    -1.581000000    -4.010000000    -2.734000000
H    -2.038000000    -4.570000000    -1.921000000
C    -1.524000000    -1.976000000    -3.930000000
H    -1.815000000    -0.942000000    -4.094000000
O    -4.051000000    -1.138000000    -2.507000000
H    -2.386000000    -1.370000000    -1.316000000
C    -4.231000000    -1.756000000     0.923000000
C    -5.370000000    -1.069000000     0.170000000
H    -6.223000000    -0.808000000     0.800000000
H    -5.721000000    -1.775000000    -0.585000000
C    -4.851000000     0.061000000    -0.536000000
C    -4.211000000     0.003000000    -1.796000000
C    -3.740000000     1.142000000    -2.424000000
H    -3.322000000     1.090000000    -3.426000000
C    -3.707000000     2.352000000    -1.741000000
O    -3.093000000     3.397000000    -2.353000000
C    -1.723000000     3.667000000    -1.954000000
H    -1.180000000     2.860000000    -1.441000000
C    -0.791000000     4.121000000    -3.109000000
C     0.303000000     4.987000000    -2.871000000
H     0.407000000     5.472000000    -1.904000000
C    -0.881000000     3.416000000    -4.319000000
H    -1.802000000     2.853000000    -4.451000000
C     0.115000000     3.587000000    -5.284000000
O     0.172000000     2.935000000    -6.480000000
C     0.982000000     4.665000000    -5.122000000
H     1.705000000     4.902000000    -5.899000000
C     1.242000000     5.224000000    -3.914000000
O     2.267000000     6.155000000    -3.791000000
C     2.976000000     6.239000000    -2.675000000
C     3.483000000     5.064000000    -2.085000000
H     3.291000000     4.064000000    -2.464000000
C     3.107000000     7.467000000    -2.059000000
H     2.673000000     8.338000000    -2.543000000
C     3.770000000     7.639000000    -0.881000000
H     3.862000000     8.577000000    -0.339000000
C     4.339000000     6.477000000    -0.306000000
H     4.918000000     6.565000000     0.610000000
C     4.151000000     5.225000000    -0.859000000
O     4.830000000     4.157000000    -0.285000000
C     4.432000000     3.352000000     0.780000000
C     5.304000000     2.401000000     1.294000000
H     6.343000000     2.400000000     0.975000000
C     4.895000000     1.328000000     2.094000000
O     5.724000000     0.260000000     2.430000000
C     5.469000000    -0.613000000     3.433000000
C     5.153000000    -1.936000000     3.087000000
H     5.092000000    -2.270000000     2.054000000
C     5.676000000    -0.300000000     4.765000000
H     5.897000000     0.734000000     5.018000000
C     5.520000000    -1.274000000     5.773000000
H     5.650000000    -1.078000000     6.834000000
C     5.204000000    -2.570000000     5.386000000
H     4.915000000    -3.203000000     6.221000000
C     4.999000000    -2.887000000     4.073000000
O     4.558000000    -4.125000000     3.748000000
C     3.354000000    -4.422000000     3.110000000
C     3.339000000    -5.408000000     2.178000000
H     4.250000000    -5.878000000     1.817000000
C     2.181000000    -5.622000000     1.449000000
O     2.200000000    -6.727000000     0.641000000
C     1.117000000    -7.074000000    -0.204000000
C     0.867000000    -6.375000000    -1.417000000
H     1.445000000    -5.509000000    -1.730000000
C     0.470000000    -8.322000000    -0.001000000
H     0.555000000    -8.848000000     0.947000000
C    -0.445000000    -8.776000000    -0.992000000
H    -0.784000000    -9.808000000    -0.999000000
C    -0.687000000    -8.013000000    -2.137000000
H    -1.377000000    -8.337000000    -2.912000000
C    -0.123000000    -6.780000000    -2.311000000
O    -0.388000000    -6.048000000    -3.463000000
C    -0.630000000    -4.667000000    -3.609000000
C    -0.202000000    -3.920000000    -4.679000000
H     0.444000000    -4.424000000    -5.393000000
C    -0.582000000    -2.545000000    -4.847000000
O    -0.009000000    -1.767000000    -5.835000000
C    -0.601000000    -0.648000000    -6.406000000
C    -1.871000000    -0.653000000    -6.941000000
H    -2.419000000    -1.586000000    -7.048000000
C    -2.511000000     0.559000000    -7.267000000
H    -3.529000000     0.624000000    -7.642000000
C    -1.809000000     1.683000000    -7.135000000
H    -2.383000000     2.583000000    -7.341000000
C    -0.491000000     1.716000000    -6.672000000
C     0.055000000     0.564000000    -6.158000000
H     1.018000000     0.666000000    -5.665000000
C     2.578000000     1.065000000    -1.601000000
H     3.292000000     1.804000000    -1.955000000
C     1.299000000     1.482000000    -1.125000000
H     0.936000000     2.485000000    -0.917000000
C     0.422000000     0.548000000    -0.663000000
H    -0.578000000     0.849000000    -0.233000000
C     0.681000000    -0.804000000    -0.895000000
H    -0.052000000    -1.558000000    -0.620000000
C     1.998000000    -1.209000000    -1.315000000
H     2.107000000    -2.279000000    -1.470000000
C     3.017000000    -0.280000000    -1.644000000
C     4.319000000    -0.738000000    -2.184000000
O     4.421000000    -1.865000000    -2.603000000
O     5.245000000     0.060000000    -2.406000000
O     4.250000000    -4.328000000    -6.748000000
H     3.711000000    -3.627000000    -6.380000000
H     3.810000000    -5.134000000    -6.477000000
O     3.999000000    -6.432000000    -2.830000000
H     4.070000000    -5.718000000    -2.197000000
H     3.618000000    -7.156000000    -2.334000000
O     8.838000000     1.973000000    -2.676000000
H     8.479000000     2.064000000    -3.559000000
H     8.981000000     2.872000000    -2.382000000
O     2.904000000     2.152000000    -6.685000000
H     2.014000000     2.473000000    -6.826000000
H     2.822000000     1.198000000    -6.706000000
O     4.315000000    -4.276000000    -1.267000000
H     4.273000000    -3.443000000    -1.738000000
H     4.525000000    -4.031000000    -0.366000000
O     6.919000000    -3.482000000    -6.251000000
H     6.832000000    -3.538000000    -5.300000000
H     6.030000000    -3.614000000    -6.581000000
O     6.989000000    -5.384000000     1.209000000
H     6.602000000    -5.052000000     0.399000000
H     6.509000000    -6.193000000     1.389000000
O     3.275000000    -0.377000000    -7.443000000
H     4.099000000    -0.580000000    -7.887000000
H     3.347000000    -0.813000000    -6.594000000
O     4.501000000     3.981000000    -5.390000000
H     3.988000000     3.325000000    -5.861000000
H     4.584000000     3.630000000    -4.503000000
O     8.812000000     0.814000000     1.490000000
H     8.285000000     0.598000000     0.721000000
H     8.384000000     0.351000000     2.211000000
O     7.284000000    -0.776000000    -6.933000000
H     6.711000000    -0.496000000    -6.219000000
H     7.488000000    -1.689000000    -6.733000000
O     5.785000000     2.696000000    -3.129000000
H     5.547000000     2.028000000    -2.486000000
H     6.008000000     3.464000000    -2.604000000
O     5.878000000     0.385000000    -5.143000000
H     5.889000000     0.048000000    -4.247000000
H     5.156000000     1.014000000    -5.154000000
O     8.831000000    -1.884000000    -2.918000000
H     8.610000000    -1.441000000    -2.099000000
H     7.989000000    -2.171000000    -3.270000000
O     6.571000000    -3.061000000    -3.407000000
H     5.894000000    -2.451000000    -3.115000000
H     6.538000000    -3.777000000    -2.773000000
O     7.479000000     0.114000000    -1.112000000
H     7.991000000     0.839000000    -1.470000000
H     6.612000000     0.215000000    -1.507000000
O     6.657000000    -2.740000000    -0.481000000
H     6.142000000    -2.015000000    -0.836000000
H     7.472000000    -2.333000000    -0.186000000
O     8.016000000     2.624000000    -5.257000000
H     7.350000000     1.938000000    -5.297000000
H     7.886000000     3.131000000    -6.058000000
O     3.169000000    -1.969000000    -5.286000000
H     2.284000000    -2.296000000    -5.125000000
H     3.555000000    -1.884000000    -4.413000000
