215
-1456.02999
C     3.969000000     1.086000000     2.650000000
H     3.501000000     0.198000000     3.067000000
C     3.187000000     2.275000000     2.617000000
C     3.650000000     3.361000000     1.828000000
H     2.975000000     4.190000000     1.633000000
C     1.765000000     2.273000000     3.234000000
O     1.697000000     1.571000000     4.459000000
H     1.162000000     1.719000000     2.499000000
O     1.266000000     3.582000000     3.368000000
C     0.033000000     3.793000000     2.864000000
C    -0.047000000     4.357000000     1.601000000
H     0.848000000     4.780000000     1.153000000
C    -1.261000000     4.274000000     0.916000000
O    -1.348000000     4.614000000    -0.416000000
C    -2.399000000     3.749000000     1.607000000
C    -3.811000000     3.845000000     0.938000000
H    -4.488000000     3.945000000     1.789000000
C    -4.154000000     2.672000000     0.112000000
C    -4.752000000     1.544000000     0.663000000
H    -5.005000000     1.621000000     1.718000000
H    -3.866000000     4.772000000     0.364000000
C    -2.285000000     3.205000000     2.889000000
H    -3.162000000     2.916000000     3.464000000
C    -1.096000000     3.171000000     3.508000000
C    -1.024000000     2.585000000     4.887000000
H    -1.998000000     2.704000000     5.365000000
H    -0.376000000     3.259000000     5.451000000
C    -0.705000000     1.082000000     4.818000000
C    -1.733000000     0.161000000     4.882000000
H    -2.731000000     0.531000000     5.103000000
C     0.578000000     0.693000000     4.608000000
C     0.837000000    -0.653000000     4.514000000
H     1.871000000    -0.914000000     4.303000000
C    -0.129000000    -1.660000000     4.452000000
O     0.264000000    -2.917000000     4.248000000
C     0.045000000    -3.367000000     2.859000000
C     1.218000000    -4.254000000     2.437000000
C     0.968000000    -5.221000000     1.493000000
H    -0.035000000    -5.277000000     1.076000000
C     2.459000000    -4.140000000     3.065000000
H     2.636000000    -3.274000000     3.697000000
O    -1.258000000    -4.002000000     2.723000000
H     0.011000000    -2.433000000     2.278000000
C    -1.447000000    -1.236000000     4.690000000
C    -2.637000000    -2.219000000     4.497000000
H    -3.503000000    -1.801000000     5.014000000
H    -2.362000000    -3.203000000     4.881000000
C    -2.998000000    -2.374000000     3.036000000
C    -4.062000000    -1.647000000     2.404000000
H    -4.595000000    -0.862000000     2.934000000
C    -2.257000000    -3.253000000     2.226000000
C    -2.525000000    -3.432000000     0.908000000
H    -2.034000000    -4.248000000     0.384000000
C    -3.558000000    -2.659000000     0.267000000
O    -3.669000000    -2.805000000    -1.075000000
C    -3.195000000    -1.679000000    -1.914000000
C    -2.417000000    -2.168000000    -3.132000000
C    -1.574000000    -3.238000000    -2.932000000
H    -1.400000000    -3.675000000    -1.952000000
C    -2.671000000    -1.665000000    -4.418000000
H    -3.310000000    -0.791000000    -4.520000000
O    -4.307000000    -0.683000000    -2.216000000
H    -2.466000000    -1.129000000    -1.301000000
C    -4.369000000    -1.844000000     1.059000000
C    -5.349000000    -0.880000000     0.478000000
H    -6.080000000    -0.569000000     1.226000000
H    -6.003000000    -1.425000000    -0.206000000
C    -4.782000000     0.348000000    -0.107000000
C    -4.340000000     0.437000000    -1.424000000
C    -3.911000000     1.593000000    -2.058000000
H    -3.521000000     1.631000000    -3.072000000
C    -3.711000000     2.708000000    -1.216000000
O    -2.982000000     3.720000000    -1.797000000
C    -1.589000000     3.582000000    -1.407000000
H    -1.482000000     2.588000000    -0.949000000
C    -0.673000000     3.735000000    -2.638000000
C     0.642000000     4.227000000    -2.465000000
H     1.117000000     4.409000000    -1.504000000
C    -1.115000000     3.309000000    -3.923000000
H    -2.124000000     2.908000000    -3.977000000
C    -0.289000000     3.516000000    -4.985000000
O    -0.858000000     3.263000000    -6.258000000
C     0.974000000     3.965000000    -4.826000000
H     1.691000000     3.922000000    -5.642000000
C     1.389000000     4.397000000    -3.583000000
O     2.773000000     4.621000000    -3.518000000
C     3.365000000     5.229000000    -2.409000000
C     4.074000000     4.460000000    -1.481000000
H     4.227000000     3.384000000    -1.473000000
C     3.105000000     6.580000000    -2.161000000
H     2.436000000     7.136000000    -2.813000000
C     3.790000000     7.215000000    -1.173000000
H     3.670000000     8.294000000    -1.112000000
C     4.583000000     6.490000000    -0.280000000
H     5.101000000     6.938000000     0.564000000
C     4.645000000     5.091000000    -0.375000000
O     5.331000000     4.340000000     0.578000000
C     4.894000000     3.283000000     1.229000000
C     5.688000000     2.147000000     1.336000000
H     6.660000000     2.127000000     0.851000000
C     5.232000000     0.989000000     2.014000000
O     5.975000000    -0.180000000     2.061000000
C     5.836000000    -1.162000000     2.999000000
C     5.732000000    -2.512000000     2.617000000
H     5.754000000    -2.802000000     1.569000000
C     5.690000000    -0.873000000     4.342000000
H     5.926000000     0.158000000     4.595000000
C     5.559000000    -1.846000000     5.304000000
H     5.527000000    -1.484000000     6.329000000
C     5.230000000    -3.139000000     4.859000000
H     4.920000000    -3.865000000     5.606000000
C     5.269000000    -3.491000000     3.506000000
O     4.832000000    -4.769000000     3.062000000
C     3.536000000    -4.938000000     2.588000000
C     3.289000000    -5.914000000     1.627000000
H     4.086000000    -6.505000000     1.185000000
C     2.010000000    -6.035000000     1.088000000
O     1.962000000    -6.950000000     0.002000000
C     1.114000000    -6.794000000    -1.041000000
C     1.252000000    -5.709000000    -1.963000000
H     2.036000000    -4.972000000    -1.811000000
C     0.027000000    -7.671000000    -1.067000000
H    -0.129000000    -8.468000000    -0.345000000
C    -0.888000000    -7.470000000    -2.081000000
H    -1.769000000    -8.106000000    -2.068000000
C    -0.912000000    -6.367000000    -2.936000000
H    -1.697000000    -6.262000000    -3.680000000
C     0.264000000    -5.581000000    -2.986000000
O     0.290000000    -4.486000000    -3.757000000
C    -0.762000000    -3.649000000    -3.976000000
C    -0.896000000    -3.041000000    -5.201000000
H    -0.254000000    -3.362000000    -6.018000000
C    -1.838000000    -2.045000000    -5.435000000
O    -1.914000000    -1.532000000    -6.722000000
C    -2.233000000    -0.165000000    -6.853000000
C    -3.423000000     0.147000000    -7.448000000
H    -4.081000000    -0.663000000    -7.751000000
C    -3.809000000     1.492000000    -7.590000000
H    -4.711000000     1.806000000    -8.109000000
C    -2.885000000     2.511000000    -7.205000000
H    -3.028000000     3.586000000    -7.275000000
C    -1.698000000     2.185000000    -6.610000000
C    -1.314000000     0.833000000    -6.475000000
H    -0.353000000     0.586000000    -6.032000000
C     3.229000000     0.437000000    -0.956000000
H     3.940000000     1.077000000    -1.471000000
C     1.880000000     0.815000000    -0.765000000
H     1.501000000     1.827000000    -0.888000000
C     0.898000000    -0.167000000    -0.411000000
H    -0.201000000     0.065000000    -0.314000000
C     1.318000000    -1.507000000    -0.205000000
H     0.624000000    -2.298000000     0.067000000
C     2.695000000    -1.811000000    -0.268000000
H     3.073000000    -2.815000000    -0.097000000
C     3.638000000    -0.917000000    -0.724000000
C     5.117000000    -1.229000000    -0.867000000
O     5.539000000    -2.398000000    -0.936000000
O     5.982000000    -0.397000000    -1.123000000
O     7.403000000    -5.510000000    -2.320000000
H     7.711000000    -4.940000000    -3.025000000
H     8.116000000    -6.134000000    -2.188000000
O     8.621000000     3.070000000    -0.791000000
H     7.822000000     3.018000000    -1.316000000
H     9.313000000     2.770000000    -1.380000000
O     8.871000000    -3.031000000    -4.135000000
H     9.722000000    -3.439000000    -3.976000000
H     8.720000000    -2.484000000    -3.363000000
O     5.268000000    -7.084000000    -2.012000000
H     6.099000000    -6.643000000    -2.190000000
H     4.843000000    -7.146000000    -2.868000000
O     2.154000000    -1.532000000    -4.315000000
H     2.516000000    -0.676000000    -4.547000000
H     1.727000000    -1.391000000    -3.471000000
O     7.031000000    -4.455000000    -5.709000000
H     6.263000000    -3.891000000    -5.625000000
H     7.607000000    -4.184000000    -4.993000000
O     9.994000000     0.878000000    -2.684000000
H     9.523000000     0.176000000    -2.235000000
H    10.908000000     0.758000000    -2.425000000
O     5.358000000     1.545000000    -4.877000000
H     5.809000000     0.990000000    -5.515000000
H     5.203000000     2.367000000    -5.342000000
O     9.131000000     1.089000000     1.198000000
H     8.473000000     0.444000000     1.459000000
H     8.627000000     1.795000000     0.794000000
O     4.803000000    -4.210000000    -2.939000000
H     5.122000000    -3.607000000    -2.268000000
H     5.155000000    -5.062000000    -2.682000000
O     2.621000000     1.039000000    -5.087000000
H     2.342000000     1.886000000    -4.739000000
H     3.523000000     0.940000000    -4.783000000
O     6.460000000     1.820000000    -2.303000000
H     6.397000000     0.938000000    -1.937000000
H     5.997000000     1.767000000    -3.139000000
O     6.880000000    -0.803000000    -4.298000000
H     6.291000000    -0.100000000    -4.024000000
H     7.081000000    -1.275000000    -3.489000000
O    10.302000000    -3.320000000    -0.720000000
H    11.067000000    -3.092000000    -0.191000000
H     9.565000000    -3.266000000    -0.112000000
O     7.868000000    -3.446000000     0.327000000
H     7.026000000    -3.076000000     0.062000000
H     7.819000000    -4.365000000     0.063000000
O     8.346000000    -1.351000000    -1.975000000
H     8.478000000    -2.191000000    -1.535000000
H     7.595000000    -0.961000000    -1.528000000
O     8.819000000    -2.417000000     3.146000000
H     8.295000000    -2.886000000     2.496000000
H     9.130000000    -3.100000000     3.741000000
O     8.506000000     2.130000000    -4.755000000
H     8.851000000     1.715000000    -3.964000000
H     7.684000000     1.669000000    -4.928000000
O     3.514000000    -3.644000000    -5.448000000
H     3.819000000    -4.056000000    -4.640000000
H     3.053000000    -2.857000000    -5.157000000
