215
-1456.06754
C     3.515000000     1.748000000     2.120000000
H     3.268000000     0.882000000     2.728000000
C     2.583000000     2.753000000     1.918000000
C     2.910000000     3.866000000     1.083000000
H     2.187000000     4.638000000     0.832000000
C     1.324000000     2.627000000     2.748000000
O     1.525000000     2.105000000     4.084000000
H     0.753000000     1.954000000     2.093000000
O     0.639000000     3.896000000     2.732000000
C    -0.666000000     3.891000000     2.391000000
C    -0.911000000     4.209000000     1.076000000
H    -0.098000000     4.591000000     0.464000000
C    -2.176000000     4.063000000     0.585000000
O    -2.366000000     4.437000000    -0.715000000
C    -3.185000000     3.471000000     1.333000000
C    -4.515000000     3.239000000     0.737000000
H    -5.349000000     3.243000000     1.442000000
C    -4.599000000     1.944000000    -0.141000000
C    -5.054000000     0.811000000     0.471000000
H    -5.481000000     0.958000000     1.460000000
H    -4.788000000     4.079000000     0.095000000
C    -2.914000000     3.064000000     2.661000000
H    -3.662000000     2.519000000     3.230000000
C    -1.644000000     3.286000000     3.183000000
C    -1.352000000     2.855000000     4.583000000
H    -2.245000000     2.891000000     5.210000000
H    -0.736000000     3.581000000     5.119000000
C    -0.772000000     1.429000000     4.568000000
C    -1.646000000     0.324000000     4.687000000
H    -2.705000000     0.568000000     4.716000000
C     0.626000000     1.182000000     4.467000000
C     1.011000000    -0.182000000     4.486000000
H     2.069000000    -0.421000000     4.416000000
C     0.127000000    -1.252000000     4.596000000
O     0.590000000    -2.500000000     4.398000000
C     0.438000000    -3.151000000     3.166000000
C     1.618000000    -3.985000000     2.730000000
C     1.497000000    -5.086000000     1.886000000
H     0.488000000    -5.369000000     1.594000000
C     2.888000000    -3.580000000     3.158000000
H     2.916000000    -2.757000000     3.867000000
O    -0.734000000    -3.987000000     3.248000000
H     0.214000000    -2.406000000     2.389000000
C    -1.247000000    -0.995000000     4.759000000
C    -2.352000000    -2.061000000     4.721000000
H    -3.254000000    -1.544000000     5.056000000
H    -2.203000000    -2.928000000     5.368000000
C    -2.685000000    -2.521000000     3.303000000
C    -3.798000000    -2.006000000     2.614000000
H    -4.607000000    -1.433000000     3.060000000
C    -1.890000000    -3.513000000     2.651000000
C    -2.227000000    -3.963000000     1.363000000
H    -1.598000000    -4.633000000     0.782000000
C    -3.235000000    -3.333000000     0.673000000
O    -3.263000000    -3.546000000    -0.708000000
C    -2.817000000    -2.461000000    -1.543000000
C    -1.780000000    -2.857000000    -2.618000000
C    -1.245000000    -4.139000000    -2.573000000
H    -1.674000000    -4.866000000    -1.889000000
C    -1.347000000    -1.927000000    -3.612000000
H    -1.685000000    -0.899000000    -3.719000000
O    -3.952000000    -1.724000000    -2.052000000
H    -2.219000000    -1.784000000    -0.916000000
C    -4.060000000    -2.403000000     1.280000000
C    -5.265000000    -1.739000000     0.596000000
H    -6.057000000    -1.501000000     1.308000000
H    -5.771000000    -2.523000000     0.030000000
C    -4.864000000    -0.459000000    -0.128000000
C    -4.294000000    -0.540000000    -1.434000000
C    -3.936000000     0.614000000    -2.067000000
H    -3.458000000     0.530000000    -3.039000000
C    -4.054000000     1.811000000    -1.420000000
O    -3.515000000     2.935000000    -2.046000000
C    -2.153000000     3.372000000    -1.758000000
H    -1.551000000     2.516000000    -1.420000000
C    -1.441000000     3.924000000    -2.957000000
C    -0.580000000     5.052000000    -2.841000000
H    -0.541000000     5.666000000    -1.945000000
C    -1.467000000     3.260000000    -4.126000000
H    -2.160000000     2.424000000    -4.188000000
C    -0.695000000     3.675000000    -5.224000000
O    -0.622000000     3.033000000    -6.482000000
C     0.156000000     4.779000000    -5.119000000
H     0.820000000     5.071000000    -5.928000000
C     0.213000000     5.467000000    -3.889000000
O     1.030000000     6.574000000    -3.678000000
C     1.878000000     6.738000000    -2.559000000
C     2.658000000     5.653000000    -2.162000000
H     2.626000000     4.650000000    -2.581000000
C     1.910000000     7.946000000    -1.864000000
H     1.317000000     8.802000000    -2.176000000
C     2.951000000     8.075000000    -0.910000000
H     3.068000000     9.013000000    -0.374000000
C     3.736000000     6.945000000    -0.524000000
H     4.531000000     7.012000000     0.214000000
C     3.454000000     5.730000000    -1.041000000
O     4.258000000     4.626000000    -0.786000000
C     4.021000000     3.762000000     0.266000000
C     4.908000000     2.639000000     0.371000000
H     5.741000000     2.582000000    -0.326000000
C     4.694000000     1.654000000     1.318000000
O     5.353000000     0.481000000     1.316000000
C     5.606000000    -0.333000000     2.465000000
C     5.535000000    -1.679000000     2.251000000
H     5.351000000    -2.108000000     1.270000000
C     5.889000000     0.214000000     3.718000000
H     5.957000000     1.290000000     3.861000000
C     5.978000000    -0.643000000     4.815000000
H     6.174000000    -0.184000000     5.780000000
C     5.845000000    -2.027000000     4.652000000
H     5.999000000    -2.699000000     5.493000000
C     5.577000000    -2.539000000     3.389000000
O     5.303000000    -3.922000000     3.146000000
C     4.048000000    -4.280000000     2.744000000
C     3.885000000    -5.349000000     1.888000000
H     4.797000000    -5.865000000     1.599000000
C     2.645000000    -5.754000000     1.443000000
O     2.529000000    -6.895000000     0.699000000
C     1.582000000    -7.150000000    -0.253000000
C     1.493000000    -6.358000000    -1.368000000
H     2.182000000    -5.526000000    -1.487000000
C     0.586000000    -8.048000000     0.004000000
H     0.584000000    -8.623000000     0.926000000
C    -0.495000000    -8.150000000    -0.818000000
H    -1.259000000    -8.907000000    -0.662000000
C    -0.540000000    -7.435000000    -1.984000000
H    -1.378000000    -7.546000000    -2.668000000
C     0.421000000    -6.483000000    -2.212000000
O     0.325000000    -5.737000000    -3.382000000
C    -0.168000000    -4.496000000    -3.441000000
C     0.298000000    -3.592000000    -4.434000000
H     1.072000000    -3.885000000    -5.139000000
C    -0.378000000    -2.387000000    -4.547000000
O     0.070000000    -1.622000000    -5.644000000
C    -0.669000000    -0.658000000    -6.201000000
C    -1.716000000    -0.913000000    -7.051000000
H    -2.026000000    -1.947000000    -7.176000000
C    -2.288000000     0.140000000    -7.866000000
H    -3.148000000    -0.042000000    -8.506000000
C    -1.864000000     1.449000000    -7.650000000
H    -2.459000000     2.255000000    -8.070000000
C    -0.972000000     1.679000000    -6.624000000
C    -0.279000000     0.676000000    -6.007000000
H     0.507000000     0.902000000    -5.291000000
C     2.680000000     0.097000000    -1.155000000
H     3.269000000     0.874000000    -1.634000000
C     1.355000000     0.242000000    -0.726000000
H     0.937000000     1.233000000    -0.884000000
C     0.679000000    -0.845000000    -0.085000000
H    -0.282000000    -0.755000000     0.308000000
C     1.340000000    -2.044000000     0.004000000
H     0.816000000    -2.889000000     0.442000000
C     2.684000000    -2.197000000    -0.317000000
H     3.151000000    -3.177000000    -0.269000000
C     3.387000000    -1.099000000    -0.860000000
C     4.807000000    -1.287000000    -1.384000000
O     5.476000000    -2.256000000    -1.131000000
O     5.204000000    -0.440000000    -2.147000000
O     9.054000000    -3.675000000    -2.927000000
H     8.780000000    -3.447000000    -2.039000000
H     9.971000000    -3.934000000    -2.836000000
O     5.460000000    -5.867000000    -3.634000000
H     5.186000000    -4.988000000    -3.895000000
H     6.383000000    -5.914000000    -3.882000000
O     8.052000000     2.956000000    -1.298000000
H     7.178000000     2.859000000    -1.675000000
H     8.273000000     2.082000000    -0.977000000
O    10.422000000    -1.731000000    -4.496000000
H    10.561000000    -2.420000000    -5.146000000
H     9.713000000    -2.061000000    -3.945000000
O     8.684000000     2.314000000     2.157000000
H     9.531000000     1.871000000     2.203000000
H     8.040000000     1.608000000     2.211000000
O     4.297000000     1.942000000    -6.924000000
H     3.757000000     1.664000000    -7.664000000
H     4.589000000     1.125000000    -6.521000000
O     5.284000000    -4.852000000    -0.902000000
H     5.146000000    -5.309000000    -1.732000000
H     5.535000000    -3.964000000    -1.158000000
O     2.977000000    -2.239000000    -5.902000000
H     2.749000000    -2.765000000    -6.669000000
H     2.144000000    -1.872000000    -5.607000000
O     4.774000000    -4.962000000    -6.531000000
H     4.238000000    -5.637000000    -6.116000000
H     4.828000000    -4.264000000    -5.878000000
O     6.235000000    -7.377000000    -0.028000000
H     6.765000000    -7.311000000     0.766000000
H     6.066000000    -6.469000000    -0.280000000
O     7.118000000    -2.190000000    -6.269000000
H     7.252000000    -1.921000000    -5.360000000
H     7.913000000    -2.672000000    -6.496000000
O     7.290000000    -1.265000000    -3.757000000
H     6.697000000    -0.857000000    -3.126000000
H     7.483000000    -2.125000000    -3.384000000
O     5.460000000     2.342000000    -2.827000000
H     5.216000000     1.559000000    -2.333000000
H     4.633000000     2.674000000    -3.174000000
O     4.501000000     0.005000000    -4.730000000
H     4.546000000     0.034000000    -3.774000000
H     4.077000000    -0.831000000    -4.924000000
O    10.226000000    -1.326000000     1.063000000
H    10.223000000    -1.671000000     1.956000000
H     9.405000000    -1.640000000     0.683000000
O     8.064000000    -2.376000000    -0.252000000
H     7.140000000    -2.224000000    -0.451000000
H     8.091000000    -3.270000000     0.089000000
O     7.450000000     0.316000000    -0.809000000
H     7.838000000    -0.481000000    -0.450000000
H     6.602000000     0.037000000    -1.152000000
O     6.886000000     1.651000000    -5.053000000
H     6.181000000     1.005000000    -5.097000000
H     6.823000000     2.015000000    -4.170000000
O     4.670000000    -3.382000000    -4.228000000
H     4.116000000    -3.140000000    -4.970000000
H     5.031000000    -2.552000000    -3.917000000
