215
-1452.08787
C     3.579000000     1.861000000     1.647000000
H     3.256000000     1.082000000     2.333000000
C     2.734000000     2.926000000     1.322000000
C     3.273000000     3.816000000     0.427000000
H     2.622000000     4.606000000     0.062000000
C     1.335000000     3.045000000     1.934000000
O     1.422000000     2.688000000     3.302000000
H     0.616000000     2.422000000     1.382000000
O     0.850000000     4.381000000     1.965000000
C    -0.397000000     4.508000000     1.479000000
C    -0.545000000     4.773000000     0.103000000
H     0.318000000     4.977000000    -0.526000000
C    -1.787000000     4.614000000    -0.425000000
O    -1.816000000     4.591000000    -1.799000000
C    -2.905000000     4.163000000     0.314000000
C    -4.219000000     3.918000000    -0.366000000
H    -4.925000000     4.271000000     0.388000000
C    -4.308000000     2.472000000    -0.822000000
C    -4.706000000     1.429000000     0.074000000
H    -5.134000000     1.701000000     1.035000000
H    -4.488000000     4.559000000    -1.208000000
C    -2.739000000     3.891000000     1.688000000
H    -3.556000000     3.400000000     2.211000000
C    -1.506000000     4.136000000     2.315000000
C    -1.255000000     3.774000000     3.742000000
H    -2.192000000     4.085000000     4.208000000
H    -0.454000000     4.464000000     4.016000000
C    -0.824000000     2.364000000     3.976000000
C    -1.835000000     1.484000000     4.493000000
H    -2.883000000     1.754000000     4.598000000
C     0.459000000     1.876000000     3.720000000
C     0.832000000     0.601000000     4.104000000
H     1.821000000     0.189000000     3.919000000
C    -0.188000000    -0.297000000     4.541000000
O     0.214000000    -1.591000000     4.709000000
C    -0.023000000    -2.572000000     3.627000000
C     1.123000000    -3.474000000     3.442000000
C     0.924000000    -4.667000000     2.703000000
H    -0.054000000    -4.936000000     2.311000000
C     2.445000000    -3.114000000     3.849000000
H     2.577000000    -2.167000000     4.367000000
O    -1.277000000    -3.313000000     3.932000000
H    -0.165000000    -1.920000000     2.753000000
C    -1.539000000     0.143000000     4.682000000
C    -2.630000000    -0.925000000     4.988000000
H    -3.462000000    -0.341000000     5.388000000
H    -2.315000000    -1.564000000     5.816000000
C    -2.975000000    -1.617000000     3.692000000
C    -3.923000000    -1.048000000     2.842000000
H    -4.500000000    -0.190000000     3.177000000
C    -2.374000000    -2.809000000     3.237000000
C    -2.603000000    -3.293000000     1.988000000
H    -2.050000000    -4.154000000     1.621000000
C    -3.645000000    -2.805000000     1.155000000
O    -3.672000000    -3.219000000    -0.188000000
C    -2.812000000    -2.511000000    -1.137000000
C    -2.209000000    -3.510000000    -2.106000000
C    -1.993000000    -4.853000000    -1.804000000
H    -2.387000000    -5.203000000    -0.854000000
C    -1.696000000    -2.921000000    -3.254000000
H    -1.845000000    -1.874000000    -3.508000000
O    -3.565000000    -1.518000000    -1.940000000
H    -1.993000000    -1.986000000    -0.624000000
C    -4.256000000    -1.617000000     1.570000000
C    -5.255000000    -0.936000000     0.640000000
H    -6.068000000    -0.499000000     1.224000000
H    -5.711000000    -1.644000000    -0.056000000
C    -4.577000000     0.037000000    -0.290000000
C    -3.941000000    -0.203000000    -1.506000000
C    -3.649000000     0.792000000    -2.391000000
H    -3.016000000     0.563000000    -3.245000000
C    -3.731000000     2.137000000    -2.073000000
O    -3.053000000     2.970000000    -2.885000000
C    -1.766000000     3.347000000    -2.498000000
H    -1.434000000     2.614000000    -1.749000000
C    -0.633000000     3.308000000    -3.618000000
C     0.085000000     4.468000000    -3.892000000
H    -0.117000000     5.369000000    -3.318000000
C    -0.442000000     2.171000000    -4.425000000
H    -1.103000000     1.314000000    -4.324000000
C     0.490000000     2.294000000    -5.488000000
O     0.700000000     1.275000000    -6.380000000
C     1.340000000     3.369000000    -5.615000000
H     2.174000000     3.331000000    -6.312000000
C     1.171000000     4.455000000    -4.826000000
O     2.115000000     5.433000000    -4.901000000
C     2.640000000     5.933000000    -3.651000000
C     3.612000000     5.133000000    -3.045000000
H     3.905000000     4.197000000    -3.514000000
C     2.195000000     7.083000000    -3.003000000
H     1.564000000     7.837000000    -3.466000000
C     2.746000000     7.397000000    -1.759000000
H     2.522000000     8.369000000    -1.326000000
C     3.674000000     6.552000000    -1.122000000
H     4.162000000     6.787000000    -0.180000000
C     4.166000000     5.438000000    -1.794000000
O     5.020000000     4.480000000    -1.226000000
C     4.573000000     3.730000000    -0.164000000
C     5.353000000     2.659000000     0.222000000
H     6.240000000     2.395000000    -0.348000000
C     4.907000000     1.775000000     1.198000000
O     5.765000000     0.738000000     1.633000000
C     5.559000000    -0.018000000     2.800000000
C     5.265000000    -1.418000000     2.705000000
H     5.182000000    -1.830000000     1.703000000
C     5.849000000     0.475000000     4.049000000
H     6.223000000     1.491000000     4.144000000
C     5.828000000    -0.333000000     5.184000000
H     6.037000000     0.075000000     6.170000000
C     5.520000000    -1.688000000     5.120000000
H     5.509000000    -2.358000000     5.976000000
C     5.205000000    -2.185000000     3.887000000
O     4.877000000    -3.538000000     3.847000000
C     3.514000000    -3.922000000     3.517000000
C     3.288000000    -5.075000000     2.750000000
H     4.092000000    -5.746000000     2.459000000
C     2.035000000    -5.411000000     2.345000000
O     2.026000000    -6.506000000     1.524000000
C     0.913000000    -7.074000000     0.981000000
C     0.598000000    -6.817000000    -0.346000000
H     1.268000000    -6.148000000    -0.880000000
C     0.066000000    -7.853000000     1.742000000
H     0.465000000    -8.063000000     2.731000000
C    -1.135000000    -8.346000000     1.205000000
H    -1.689000000    -9.044000000     1.827000000
C    -1.480000000    -8.085000000    -0.185000000
H    -2.418000000    -8.497000000    -0.548000000
C    -0.639000000    -7.281000000    -0.912000000
O    -1.059000000    -7.042000000    -2.166000000
C    -1.361000000    -5.721000000    -2.677000000
C    -0.861000000    -5.152000000    -3.922000000
H    -0.279000000    -5.785000000    -4.587000000
C    -1.015000000    -3.804000000    -4.159000000
O    -0.503000000    -3.324000000    -5.344000000
C    -0.742000000    -2.095000000    -5.840000000
C    -1.782000000    -2.058000000    -6.782000000
H    -2.297000000    -2.983000000    -7.031000000
C    -2.043000000    -0.897000000    -7.480000000
H    -2.928000000    -0.876000000    -8.111000000
C    -1.158000000     0.190000000    -7.448000000
H    -1.327000000     1.045000000    -8.097000000
C    -0.127000000     0.185000000    -6.490000000
C     0.093000000    -0.990000000    -5.688000000
H     0.979000000    -0.941000000    -5.061000000
C     2.131000000     0.192000000    -1.978000000
H     2.700000000     0.812000000    -2.667000000
C     0.963000000     0.708000000    -1.439000000
H     0.696000000     1.752000000    -1.584000000
C     0.322000000    -0.001000000    -0.475000000
H    -0.465000000     0.480000000     0.042000000
C     0.582000000    -1.334000000    -0.373000000
H    -0.068000000    -1.981000000     0.210000000
C     1.704000000    -1.855000000    -0.964000000
H     1.859000000    -2.911000000    -0.755000000
C     2.595000000    -1.052000000    -1.630000000
C     3.760000000    -1.643000000    -2.326000000
O     3.766000000    -2.767000000    -2.819000000
O     4.652000000    -0.843000000    -2.644000000
O     8.234000000     0.299000000    -4.212000000
H     8.712000000    -0.451000000    -4.567000000
H     7.312000000     0.084000000    -4.352000000
O     3.908000000    -7.164000000    -2.831000000
H     3.350000000    -6.455000000    -3.149000000
H     4.128000000    -6.912000000    -1.935000000
O     4.068000000    -5.063000000    -0.813000000
H     4.842000000    -4.608000000    -0.480000000
H     3.727000000    -4.486000000    -1.497000000
O     3.969000000     0.114000000    -6.886000000
H     3.453000000    -0.075000000    -6.102000000
H     4.179000000    -0.748000000    -7.247000000
O     6.089000000    -3.419000000    -0.064000000
H     6.575000000    -2.703000000    -0.474000000
H     6.727000000    -4.128000000     0.013000000
O     5.844000000    -4.524000000    -6.797000000
H     5.662000000    -4.505000000    -5.857000000
H     5.510000000    -3.689000000    -7.123000000
O     7.549000000    -0.628000000    -7.127000000
H     7.163000000    -1.017000000    -6.342000000
H     7.103000000     0.213000000    -7.222000000
O     7.826000000    -6.220000000    -3.685000000
H     8.149000000    -6.532000000    -2.839000000
H     7.818000000    -5.266000000    -3.600000000
O     4.370000000    -7.621000000     0.005000000
H     5.250000000    -7.681000000    -0.367000000
H     4.144000000    -6.693000000    -0.064000000
O     2.652000000    -3.881000000    -5.942000000
H     1.992000000    -4.574000000    -5.973000000
H     2.763000000    -3.698000000    -5.009000000
O     4.858000000     2.453000000    -5.737000000
H     4.488000000     1.674000000    -6.152000000
H     5.160000000     2.148000000    -4.881000000
O     4.317000000    -2.446000000    -7.895000000
H     4.360000000    -2.615000000    -8.836000000
H     3.651000000    -3.053000000    -7.572000000
O     8.074000000    -3.698000000    -2.511000000
H     8.296000000    -4.237000000    -1.752000000
H     7.997000000    -2.811000000    -2.159000000
O     5.696000000     1.521000000    -3.192000000
H     5.219000000     0.734000000    -2.928000000
H     6.612000000     1.246000000    -3.223000000
O     5.990000000    -1.228000000    -4.774000000
H     5.349000000    -1.045000000    -4.088000000
H     5.894000000    -2.164000000    -4.949000000
O     5.306000000    -4.533000000    -4.151000000
H     4.787000000    -3.807000000    -3.804000000
H     5.183000000    -5.240000000    -3.517000000
O     8.543000000     1.301000000    -0.802000000
H     8.635000000     2.251000000    -0.732000000
H     8.748000000     1.107000000    -1.717000000
O     7.229000000    -1.225000000    -1.463000000
H     6.420000000    -0.909000000    -1.865000000
H     7.573000000    -0.467000000    -0.989000000
O     2.322000000    -4.930000000    -3.301000000
H     1.374000000    -4.831000000    -3.381000000
H     2.640000000    -4.048000000    -3.110000000
