215
-1446.78189
C     4.304000000     0.867000000     3.796000000
H     3.961000000     0.101000000     4.486000000
C     3.540000000     1.978000000     3.413000000
C     4.087000000     2.879000000     2.518000000
H     3.529000000     3.727000000     2.130000000
C     2.080000000     1.957000000     3.621000000
O     1.697000000     1.289000000     4.797000000
H     1.722000000     1.384000000     2.753000000
O     1.545000000     3.264000000     3.591000000
C     0.288000000     3.526000000     3.035000000
C     0.256000000     4.080000000     1.765000000
H     1.184000000     4.172000000     1.207000000
C    -0.940000000     4.240000000     1.126000000
O    -0.919000000     4.634000000    -0.233000000
C    -2.110000000     3.848000000     1.749000000
C    -3.450000000     4.031000000     1.066000000
H    -4.224000000     4.307000000     1.785000000
C    -3.823000000     2.871000000     0.110000000
C    -4.433000000     1.722000000     0.640000000
H    -4.719000000     1.717000000     1.688000000
H    -3.412000000     4.928000000     0.446000000
C    -2.160000000     3.379000000     3.120000000
H    -3.140000000     3.224000000     3.563000000
C    -0.921000000     3.250000000     3.773000000
C    -0.918000000     2.463000000     5.082000000
H    -1.849000000     2.486000000     5.653000000
H    -0.178000000     2.926000000     5.737000000
C    -0.702000000     0.979000000     4.789000000
C    -1.742000000     0.067000000     4.696000000
H    -2.770000000     0.359000000     4.893000000
C     0.605000000     0.469000000     4.669000000
C     0.808000000    -0.827000000     4.291000000
H     1.839000000    -1.153000000     4.176000000
C    -0.224000000    -1.711000000     4.104000000
O    -0.072000000    -3.019000000     3.723000000
C    -0.307000000    -3.405000000     2.316000000
C     0.823000000    -4.183000000     1.707000000
C     0.851000000    -4.412000000     0.346000000
H    -0.069000000    -4.422000000    -0.232000000
C     2.043000000    -4.386000000     2.414000000
H     2.007000000    -4.416000000     3.500000000
O    -1.552000000    -4.057000000     2.208000000
H    -0.322000000    -2.478000000     1.724000000
C    -1.536000000    -1.274000000     4.353000000
C    -2.662000000    -2.208000000     4.143000000
H    -3.531000000    -1.950000000     4.752000000
H    -2.476000000    -3.249000000     4.415000000
C    -3.089000000    -2.357000000     2.736000000
C    -4.016000000    -1.422000000     2.217000000
H    -4.356000000    -0.589000000     2.827000000
C    -2.606000000    -3.290000000     1.867000000
C    -3.006000000    -3.394000000     0.545000000
H    -2.566000000    -4.113000000    -0.142000000
C    -3.994000000    -2.557000000     0.018000000
O    -4.268000000    -2.501000000    -1.393000000
C    -3.693000000    -1.504000000    -2.151000000
C    -3.278000000    -2.072000000    -3.537000000
C    -2.606000000    -3.268000000    -3.645000000
H    -2.466000000    -3.923000000    -2.789000000
C    -3.202000000    -1.131000000    -4.515000000
H    -3.734000000    -0.188000000    -4.419000000
O    -4.669000000    -0.466000000    -2.347000000
H    -2.786000000    -1.188000000    -1.616000000
C    -4.487000000    -1.560000000     0.888000000
C    -5.527000000    -0.640000000     0.380000000
H    -6.189000000    -0.407000000     1.216000000
H    -6.186000000    -1.056000000    -0.385000000
C    -4.757000000     0.624000000    -0.169000000
C    -4.360000000     0.640000000    -1.540000000
C    -3.691000000     1.744000000    -2.109000000
H    -3.329000000     1.736000000    -3.134000000
C    -3.372000000     2.789000000    -1.279000000
O    -2.466000000     3.704000000    -1.731000000
C    -1.105000000     3.612000000    -1.249000000
H    -1.067000000     2.625000000    -0.765000000
C    -0.183000000     3.710000000    -2.435000000
C     1.126000000     4.010000000    -2.132000000
H     1.401000000     3.974000000    -1.081000000
C    -0.614000000     3.496000000    -3.723000000
H    -1.675000000     3.468000000    -3.959000000
C     0.390000000     3.442000000    -4.722000000
O     0.001000000     3.247000000    -5.991000000
C     1.665000000     3.668000000    -4.375000000
H     2.399000000     3.674000000    -5.177000000
C     2.108000000     3.961000000    -3.068000000
O     3.399000000     4.041000000    -2.773000000
C     3.884000000     4.635000000    -1.621000000
C     4.699000000     3.905000000    -0.837000000
H     4.980000000     2.886000000    -1.092000000
C     3.602000000     5.943000000    -1.284000000
H     2.974000000     6.600000000    -1.879000000
C     3.916000000     6.439000000     0.012000000
H     3.595000000     7.434000000     0.310000000
C     4.922000000     5.696000000     0.695000000
H     5.383000000     6.089000000     1.597000000
C     5.210000000     4.439000000     0.329000000
O     6.006000000     3.609000000     1.118000000
C     5.383000000     2.716000000     2.001000000
C     6.129000000     1.592000000     2.356000000
H     7.151000000     1.537000000     1.990000000
C     5.540000000     0.670000000     3.216000000
O     6.278000000    -0.449000000     3.475000000
C     5.758000000    -1.704000000     3.840000000
C     5.453000000    -2.653000000     2.905000000
H     5.805000000    -2.391000000     1.910000000
C     5.542000000    -1.964000000     5.136000000
H     5.818000000    -1.321000000     5.968000000
C     4.942000000    -3.161000000     5.587000000
H     4.626000000    -3.361000000     6.608000000
C     4.597000000    -4.164000000     4.695000000
H     4.244000000    -5.133000000     5.036000000
C     4.830000000    -3.867000000     3.354000000
O     4.456000000    -4.818000000     2.449000000
C     3.257000000    -4.796000000     1.788000000
C     3.181000000    -5.090000000     0.430000000
H     4.083000000    -5.325000000    -0.129000000
C     1.966000000    -4.961000000    -0.287000000
O     1.961000000    -5.097000000    -1.633000000
C     0.951000000    -5.642000000    -2.331000000
C     0.377000000    -4.959000000    -3.332000000
H     0.687000000    -3.940000000    -3.551000000
C     0.509000000    -6.871000000    -1.920000000
H     0.982000000    -7.536000000    -1.203000000
C    -0.639000000    -7.410000000    -2.479000000
H    -0.883000000    -8.431000000    -2.196000000
C    -1.289000000    -6.709000000    -3.538000000
H    -2.172000000    -7.105000000    -4.032000000
C    -0.736000000    -5.495000000    -3.934000000
O    -1.316000000    -4.817000000    -5.003000000
C    -2.025000000    -3.631000000    -4.841000000
C    -2.201000000    -2.795000000    -5.965000000
H    -1.847000000    -3.172000000    -6.921000000
C    -2.699000000    -1.515000000    -5.762000000
O    -2.693000000    -0.653000000    -6.836000000
C    -2.541000000     0.680000000    -6.823000000
C    -3.644000000     1.496000000    -7.033000000
H    -4.625000000     1.082000000    -7.251000000
C    -3.486000000     2.870000000    -7.128000000
H    -4.334000000     3.488000000    -7.410000000
C    -2.239000000     3.483000000    -6.829000000
H    -2.181000000     4.567000000    -6.784000000
C    -1.203000000     2.710000000    -6.367000000
C    -1.378000000     1.283000000    -6.341000000
H    -0.646000000     0.584000000    -5.944000000
C     2.243000000     0.662000000    -1.167000000
H     3.124000000     1.241000000    -1.434000000
C     1.414000000     1.088000000    -0.129000000
H     1.472000000     2.079000000     0.314000000
C     0.267000000     0.397000000     0.266000000
H    -0.507000000     0.707000000     1.051000000
C     0.045000000    -0.794000000    -0.329000000
H    -0.834000000    -1.380000000    -0.075000000
C     0.912000000    -1.314000000    -1.306000000
H     0.692000000    -2.317000000    -1.662000000
C     1.998000000    -0.582000000    -1.797000000
C     2.761000000    -1.048000000    -2.985000000
O     2.782000000    -2.241000000    -3.220000000
O     3.496000000    -0.272000000    -3.577000000
O     4.732000000     0.126000000    -8.001000000
H     5.405000000    -0.478000000    -7.686000000
H     4.054000000     0.103000000    -7.325000000
O     3.465000000    -1.650000000    -9.586000000
H     3.938000000    -2.478000000    -9.504000000
H     3.977000000    -1.029000000    -9.067000000
O     5.954000000    -6.305000000    -4.809000000
H     5.112000000    -5.933000000    -4.548000000
H     5.777000000    -7.238000000    -4.930000000
O     1.037000000     0.849000000    -8.382000000
H     1.333000000     0.236000000    -7.709000000
H     1.614000000     1.607000000    -8.285000000
O     8.774000000    -2.465000000    -5.568000000
H     8.595000000    -2.501000000    -4.628000000
H     9.375000000    -3.192000000    -5.725000000
O     1.764000000    -3.124000000    -5.746000000
H     1.978000000    -2.808000000    -4.868000000
H     2.369000000    -3.852000000    -5.892000000
O     6.412000000    -4.138000000    -2.471000000
H     6.919000000    -4.949000000    -2.501000000
H     7.066000000    -3.451000000    -2.341000000
O     4.175000000    -4.096000000    -6.897000000
H     4.751000000    -3.876000000    -7.629000000
H     4.370000000    -3.436000000    -6.232000000
O     7.869000000    -0.357000000    -6.979000000
H     7.910000000    -1.175000000    -6.484000000
H     8.096000000     0.321000000    -6.342000000
O     8.289000000    -2.864000000    -0.193000000
H     7.603000000    -2.258000000    -0.476000000
H     9.097000000    -2.490000000    -0.543000000
O     6.771000000     2.711000000    -5.351000000
H     7.005000000     3.262000000    -4.604000000
H     7.605000000     2.529000000    -5.785000000
O     3.949000000    -4.503000000    -3.788000000
H     3.517000000    -3.706000000    -3.480000000
H     4.756000000    -4.550000000    -3.276000000
O     2.667000000    -0.697000000    -6.343000000
H     2.859000000    -0.595000000    -5.411000000
H     2.329000000    -1.589000000    -6.423000000
O     5.594000000     1.348000000    -3.437000000
H     4.973000000     0.673000000    -3.712000000
H     5.808000000     1.819000000    -4.242000000
O     5.079000000    -2.097000000    -4.987000000
H     5.959000000    -2.059000000    -4.612000000
H     4.557000000    -1.517000000    -4.432000000
O     8.062000000    -1.636000000    -2.955000000
H     8.838000000    -1.987000000    -2.517000000
H     7.856000000    -0.836000000    -2.471000000
O     5.578000000    -1.924000000    -0.750000000
H     5.695000000    -2.805000000    -1.107000000
H     4.736000000    -1.633000000    -1.101000000
O     7.243000000     0.366000000    -1.434000000
H     6.735000000     0.830000000    -2.101000000
H     6.617000000    -0.236000000    -1.033000000
O     2.763000000    -6.443000000    -5.088000000
H     3.096000000    -6.475000000    -5.984000000
H     3.139000000    -5.643000000    -4.721000000
