215
-1471.24420
C     3.994000000    -0.615000000    -2.677000000
H     3.645000000    -1.637000000    -2.557000000
C     4.303000000     0.177000000    -1.502000000
C     4.642000000     1.529000000    -1.631000000
H     4.814000000     2.131000000    -0.742000000
C     4.105000000    -0.349000000    -0.065000000
O     4.637000000    -1.633000000    -0.024000000
H     3.051000000    -0.412000000     0.241000000
O     4.698000000     0.488000000     0.955000000
C     4.014000000     0.649000000     2.152000000
C     3.496000000     1.930000000     2.349000000
H     3.663000000     2.743000000     1.647000000
C     2.573000000     2.115000000     3.404000000
O     1.832000000     3.266000000     3.336000000
C     2.264000000     1.072000000     4.300000000
C     1.156000000     1.199000000     5.382000000
H     1.274000000     0.569000000     6.266000000
C    -0.196000000     0.965000000     4.856000000
C    -0.845000000    -0.342000000     5.079000000
H    -0.430000000    -1.180000000     5.634000000
H     1.177000000     2.175000000     5.873000000
C     2.915000000    -0.137000000     4.166000000
H     2.740000000    -0.944000000     4.873000000
C     3.762000000    -0.373000000     3.091000000
C     4.373000000    -1.714000000     2.918000000
H     4.386000000    -2.142000000     3.922000000
H     5.425000000    -1.618000000     2.640000000
C     3.582000000    -2.611000000     1.954000000
C     2.572000000    -3.466000000     2.368000000
H     2.356000000    -3.399000000     3.432000000
C     3.848000000    -2.581000000     0.608000000
C     3.134000000    -3.413000000    -0.260000000
H     3.236000000    -3.382000000    -1.342000000
C     2.112000000    -4.224000000     0.189000000
O     1.269000000    -4.693000000    -0.820000000
C    -0.021000000    -4.064000000    -1.092000000
C    -0.397000000    -3.961000000    -2.543000000
C    -1.734000000    -3.818000000    -2.894000000
H    -2.546000000    -3.870000000    -2.173000000
C     0.620000000    -4.017000000    -3.520000000
H     1.641000000    -4.056000000    -3.150000000
O    -1.059000000    -4.634000000    -0.255000000
H     0.189000000    -3.063000000    -0.687000000
C     1.758000000    -4.185000000     1.528000000
C     0.619000000    -4.999000000     2.056000000
H     0.822000000    -5.451000000     3.029000000
H     0.475000000    -5.838000000     1.372000000
C    -0.688000000    -4.214000000     2.101000000
C    -1.084000000    -3.485000000     3.256000000
H    -0.438000000    -3.530000000     4.128000000
C    -1.470000000    -4.110000000     0.979000000
C    -2.628000000    -3.317000000     0.978000000
H    -3.168000000    -3.083000000     0.064000000
C    -3.055000000    -2.708000000     2.128000000
O    -4.141000000    -1.865000000     2.006000000
C    -3.794000000    -0.456000000     1.821000000
C    -4.570000000     0.257000000     0.720000000
C    -4.819000000    -0.479000000    -0.445000000
H    -4.430000000    -1.494000000    -0.444000000
C    -4.975000000     1.618000000     0.757000000
H    -4.693000000     2.177000000     1.646000000
O    -3.907000000     0.300000000     3.027000000
H    -2.762000000    -0.368000000     1.450000000
C    -2.321000000    -2.765000000     3.303000000
C    -2.730000000    -1.933000000     4.518000000
H    -2.414000000    -2.428000000     5.439000000
H    -3.810000000    -1.833000000     4.644000000
C    -2.144000000    -0.525000000     4.499000000
C    -2.796000000     0.513000000     3.839000000
C    -2.245000000     1.753000000     3.711000000
H    -2.677000000     2.552000000     3.114000000
C    -0.929000000     1.969000000     4.134000000
O    -0.381000000     3.166000000     3.829000000
C     0.547000000     3.296000000     2.747000000
H     0.534000000     2.442000000     2.054000000
C     0.297000000     4.469000000     1.922000000
C     1.258000000     4.868000000     0.946000000
H     2.223000000     4.369000000     0.936000000
C    -0.947000000     5.182000000     1.924000000
H    -1.758000000     4.980000000     2.618000000
C    -1.251000000     6.119000000     0.979000000
O    -2.556000000     6.648000000     0.880000000
C    -0.290000000     6.417000000    -0.037000000
H    -0.551000000     7.267000000    -0.662000000
C     0.982000000     5.843000000     0.017000000
O     1.895000000     6.243000000    -0.994000000
C     3.172000000     5.680000000    -1.011000000
C     3.586000000     4.897000000    -2.113000000
H     2.855000000     4.689000000    -2.890000000
C     4.136000000     6.103000000    -0.095000000
H     3.872000000     6.701000000     0.773000000
C     5.414000000     5.515000000    -0.092000000
H     6.087000000     5.755000000     0.727000000
C     5.831000000     4.720000000    -1.171000000
H     6.865000000     4.399000000    -1.264000000
C     4.873000000     4.368000000    -2.173000000
O     5.098000000     3.445000000    -3.175000000
C     4.806000000     2.078000000    -2.906000000
C     4.549000000     1.314000000    -4.007000000
H     4.590000000     1.658000000    -5.037000000
C     4.203000000    -0.010000000    -3.872000000
O     4.033000000    -0.713000000    -5.073000000
C     3.987000000    -2.056000000    -5.192000000
C     2.707000000    -2.524000000    -5.376000000
H     1.919000000    -1.777000000    -5.335000000
C     5.053000000    -2.920000000    -5.257000000
H     6.067000000    -2.577000000    -5.067000000
C     4.853000000    -4.269000000    -5.581000000
H     5.697000000    -4.953000000    -5.544000000
C     3.539000000    -4.760000000    -5.773000000
H     3.375000000    -5.820000000    -5.951000000
C     2.469000000    -3.869000000    -5.769000000
O     1.181000000    -4.418000000    -5.794000000
C     0.253000000    -4.165000000    -4.872000000
C    -1.095000000    -4.220000000    -5.267000000
H    -1.398000000    -4.349000000    -6.303000000
C    -2.130000000    -3.974000000    -4.268000000
O    -3.455000000    -3.997000000    -4.670000000
C    -4.481000000    -3.589000000    -3.862000000
C    -4.584000000    -2.253000000    -3.718000000
H    -3.939000000    -1.601000000    -4.302000000
C    -5.233000000    -4.468000000    -3.138000000
H    -5.082000000    -5.517000000    -3.380000000
C    -6.292000000    -4.044000000    -2.372000000
H    -7.025000000    -4.714000000    -1.930000000
C    -6.332000000    -2.679000000    -2.211000000
H    -7.072000000    -2.357000000    -1.483000000
C    -5.500000000    -1.742000000    -2.839000000
O    -5.547000000    -0.442000000    -2.725000000
C    -5.506000000     0.113000000    -1.489000000
C    -5.948000000     1.392000000    -1.440000000
H    -6.338000000     1.902000000    -2.317000000
C    -5.628000000     2.156000000    -0.312000000
O    -5.807000000     3.500000000    -0.383000000
C    -5.291000000     4.375000000     0.562000000
C    -5.784000000     4.445000000     1.883000000
H    -6.694000000     3.902000000     2.123000000
C    -5.202000000     5.275000000     2.804000000
H    -5.597000000     5.370000000     3.813000000
C    -4.104000000     6.044000000     2.399000000
H    -3.630000000     6.724000000     3.102000000
C    -3.635000000     5.973000000     1.097000000
C    -4.205000000     5.108000000     0.173000000
H    -3.802000000     5.113000000    -0.837000000
C    -1.058000000    -0.705000000    -2.535000000
H    -1.745000000    -1.240000000    -3.186000000
C    -1.176000000    -0.711000000    -1.159000000
H    -1.988000000    -1.294000000    -0.732000000
C    -0.282000000     0.048000000    -0.369000000
H    -0.279000000    -0.080000000     0.700000000
C     0.765000000     0.694000000    -0.980000000
H     1.528000000     1.237000000    -0.428000000
C     0.964000000     0.606000000    -2.372000000
H     1.790000000     1.166000000    -2.805000000
C    -0.004000000    -0.029000000    -3.194000000
C     0.129000000     0.017000000    -4.694000000
O     0.838000000     0.864000000    -5.176000000
O    -0.578000000    -0.681000000    -5.424000000
O     1.738000000     0.284000000    -7.572000000
H     1.148000000     0.769000000    -8.149000000
H     1.574000000     0.646000000    -6.701000000
O     0.174000000    -2.050000000    -7.706000000
H    -0.308000000    -2.003000000    -6.880000000
H     0.724000000    -1.267000000    -7.707000000
O    -0.202000000    -4.849000000    -8.607000000
H    -0.252000000    -3.988000000    -8.191000000
H     0.293000000    -5.386000000    -7.988000000
O    -2.978000000    -3.160000000    -8.016000000
H    -2.188000000    -2.751000000    -8.369000000
H    -3.417000000    -2.459000000    -7.535000000
O    -2.381000000     2.366000000    -2.188000000
H    -1.434000000     2.503000000    -2.160000000
H    -2.522000000     1.565000000    -1.685000000
O    -4.161000000     4.254000000    -3.170000000
H    -3.629000000     3.742000000    -2.561000000
H    -4.329000000     3.658000000    -3.900000000
O     1.874000000     3.334000000    -5.118000000
H     1.127000000     3.781000000    -4.719000000
H     1.611000000     2.415000000    -5.157000000
O     0.365000000     2.938000000    -7.573000000
H     0.069000000     3.707000000    -8.061000000
H     0.616000000     3.281000000    -6.716000000
O     4.187000000    -0.881000000    -8.266000000
H     3.492000000    -0.514000000    -7.720000000
H     4.969000000    -0.844000000    -7.715000000
O    -1.389000000     0.842000000    -7.599000000
H    -0.685000000     1.485000000    -7.524000000
H    -1.197000000     0.196000000    -6.919000000
O    -5.350000000     2.126000000    -4.615000000
H    -5.180000000     2.233000000    -5.551000000
H    -4.874000000     1.332000000    -4.374000000
O    -4.173000000    -0.994000000    -7.029000000
H    -5.130000000    -0.986000000    -7.050000000
H    -3.945000000    -0.434000000    -6.286000000
O    -1.616000000    -1.447000000   -10.086000000
H    -0.954000000    -1.840000000   -10.655000000
H    -1.130000000    -0.819000000    -9.551000000
O    -3.056000000     2.724000000    -8.516000000
H    -2.490000000     3.222000000    -9.105000000
H    -2.536000000     1.958000000    -8.275000000
O    -2.970000000     0.519000000    -4.971000000
H    -2.540000000     0.966000000    -4.242000000
H    -2.279000000    -0.009000000    -5.370000000
O     2.597000000    -3.316000000    -8.729000000
H     3.055000000    -2.523000000    -8.453000000
H     1.690000000    -3.176000000    -8.457000000
O     5.146000000     3.193000000    -7.374000000
H     4.503000000     2.491000000    -7.273000000
H     5.448000000     3.112000000    -8.278000000
O    -0.337000000     4.068000000    -3.529000000
H    -0.837000000     3.933000000    -4.333000000
H    -0.777000000     4.798000000    -3.093000000
O    -1.984000000     3.567000000    -5.988000000
H    -2.258000000     3.060000000    -6.752000000
H    -2.383000000     4.428000000    -6.115000000
