215
-1454.56709
C     4.360000000     0.582000000     3.109000000
H     4.037000000    -0.366000000     3.531000000
C     3.669000000     1.778000000     3.203000000
C     4.293000000     2.922000000     2.721000000
H     3.775000000     3.875000000     2.654000000
C     2.226000000     1.714000000     3.633000000
O     2.003000000     0.929000000     4.840000000
H     1.686000000     1.264000000     2.786000000
O     1.711000000     3.076000000     3.745000000
C     0.474000000     3.371000000     3.267000000
C     0.398000000     3.932000000     1.977000000
H     1.312000000     4.245000000     1.478000000
C    -0.796000000     4.146000000     1.333000000
O    -0.658000000     4.614000000     0.066000000
C    -2.003000000     3.696000000     1.985000000
C    -3.299000000     3.923000000     1.313000000
H    -4.086000000     4.018000000     2.064000000
C    -3.763000000     2.868000000     0.353000000
C    -4.578000000     1.833000000     0.768000000
H    -4.896000000     1.716000000     1.801000000
H    -3.338000000     4.900000000     0.826000000
C    -1.949000000     3.105000000     3.277000000
H    -2.796000000     2.729000000     3.846000000
C    -0.696000000     2.956000000     3.917000000
C    -0.602000000     2.201000000     5.184000000
H    -1.433000000     2.455000000     5.847000000
H     0.264000000     2.472000000     5.790000000
C    -0.440000000     0.735000000     4.949000000
C    -1.568000000    -0.035000000     4.678000000
H    -2.521000000     0.478000000     4.776000000
C     0.846000000     0.143000000     4.801000000
C     0.918000000    -1.164000000     4.277000000
H     1.944000000    -1.502000000     4.151000000
C    -0.243000000    -1.952000000     4.218000000
O    -0.161000000    -3.238000000     3.696000000
C    -0.350000000    -3.307000000     2.249000000
C     0.724000000    -4.078000000     1.517000000
C     0.469000000    -4.649000000     0.245000000
H    -0.536000000    -4.618000000    -0.167000000
C     2.008000000    -4.211000000     2.048000000
H     2.198000000    -3.718000000     2.998000000
O    -1.654000000    -3.876000000     2.081000000
H    -0.365000000    -2.265000000     1.895000000
C    -1.514000000    -1.350000000     4.416000000
C    -2.845000000    -2.105000000     4.141000000
H    -3.637000000    -1.687000000     4.766000000
H    -2.770000000    -3.167000000     4.385000000
C    -3.297000000    -2.171000000     2.690000000
C    -4.327000000    -1.335000000     2.198000000
H    -4.817000000    -0.594000000     2.825000000
C    -2.677000000    -3.014000000     1.786000000
C    -3.089000000    -3.099000000     0.465000000
H    -2.576000000    -3.750000000    -0.238000000
C    -4.143000000    -2.272000000     0.008000000
O    -4.486000000    -2.297000000    -1.259000000
C    -3.892000000    -1.343000000    -2.173000000
C    -3.565000000    -1.943000000    -3.562000000
C    -3.170000000    -3.337000000    -3.625000000
H    -3.171000000    -3.920000000    -2.708000000
C    -3.297000000    -1.087000000    -4.612000000
H    -3.457000000    -0.012000000    -4.590000000
O    -4.741000000    -0.191000000    -2.293000000
H    -2.937000000    -1.043000000    -1.718000000
C    -4.702000000    -1.402000000     0.870000000
C    -5.792000000    -0.370000000     0.408000000
H    -6.349000000     0.064000000     1.240000000
H    -6.516000000    -0.669000000    -0.353000000
C    -4.988000000     0.829000000    -0.115000000
C    -4.505000000     0.831000000    -1.397000000
C    -3.608000000     1.801000000    -1.759000000
H    -3.352000000     1.815000000    -2.815000000
C    -3.265000000     2.836000000    -0.944000000
O    -2.381000000     3.810000000    -1.417000000
C    -0.964000000     3.682000000    -1.018000000
H    -0.792000000     2.632000000    -0.738000000
C     0.043000000     3.863000000    -2.140000000
C     1.294000000     4.250000000    -1.862000000
H     1.514000000     4.559000000    -0.844000000
C    -0.225000000     3.364000000    -3.388000000
H    -1.255000000     3.058000000    -3.549000000
C     0.706000000     3.298000000    -4.403000000
O     0.459000000     2.858000000    -5.674000000
C     1.932000000     3.926000000    -4.112000000
H     2.739000000     3.869000000    -4.838000000
C     2.322000000     4.303000000    -2.818000000
O     3.625000000     4.554000000    -2.584000000
C     4.126000000     5.070000000    -1.440000000
C     4.684000000     4.257000000    -0.467000000
H     4.735000000     3.198000000    -0.704000000
C     3.952000000     6.434000000    -1.119000000
H     3.429000000     7.151000000    -1.745000000
C     4.416000000     6.949000000     0.069000000
H     4.392000000     8.026000000     0.216000000
C     5.092000000     6.173000000     0.994000000
H     5.484000000     6.458000000     1.967000000
C     5.242000000     4.810000000     0.681000000
O     6.090000000     3.959000000     1.450000000
C     5.566000000     2.901000000     2.074000000
C     6.168000000     1.712000000     1.958000000
H     7.146000000     1.695000000     1.483000000
C     5.575000000     0.547000000     2.389000000
O     6.342000000    -0.612000000     2.186000000
C     5.963000000    -1.775000000     2.743000000
C     5.354000000    -2.725000000     1.996000000
H     5.343000000    -2.564000000     0.921000000
C     6.100000000    -1.944000000     4.126000000
H     6.510000000    -1.127000000     4.715000000
C     5.572000000    -3.097000000     4.712000000
H     5.566000000    -3.117000000     5.799000000
C     4.991000000    -4.101000000     3.938000000
H     4.575000000    -4.958000000     4.461000000
C     4.848000000    -3.939000000     2.602000000
O     4.312000000    -4.867000000     1.738000000
C     3.009000000    -4.806000000     1.266000000
C     2.839000000    -5.359000000     0.033000000
H     3.686000000    -5.712000000    -0.550000000
C     1.534000000    -5.258000000    -0.482000000
O     1.385000000    -5.605000000    -1.781000000
C     0.226000000    -6.162000000    -2.349000000
C    -0.411000000    -5.439000000    -3.367000000
H     0.054000000    -4.529000000    -3.739000000
C    -0.404000000    -7.282000000    -1.747000000
H     0.139000000    -7.772000000    -0.943000000
C    -1.651000000    -7.645000000    -2.244000000
H    -2.159000000    -8.531000000    -1.873000000
C    -2.262000000    -6.850000000    -3.248000000
H    -3.138000000    -7.247000000    -3.754000000
C    -1.662000000    -5.749000000    -3.834000000
O    -2.267000000    -5.128000000    -4.888000000
C    -2.642000000    -3.807000000    -4.837000000
C    -2.504000000    -2.891000000    -5.894000000
H    -2.082000000    -3.262000000    -6.825000000
C    -2.680000000    -1.544000000    -5.763000000
O    -2.362000000    -0.781000000    -6.836000000
C    -2.174000000     0.593000000    -6.726000000
C    -3.260000000     1.517000000    -6.735000000
H    -4.181000000     0.995000000    -6.983000000
C    -3.152000000     2.858000000    -6.552000000
H    -3.983000000     3.551000000    -6.658000000
C    -1.920000000     3.293000000    -6.124000000
H    -1.859000000     4.363000000    -5.938000000
C    -0.773000000     2.461000000    -6.044000000
C    -0.933000000     1.085000000    -6.310000000
H    -0.133000000     0.356000000    -6.409000000
C     2.451000000     0.680000000    -1.131000000
H     3.367000000     1.221000000    -1.356000000
C     1.599000000     1.151000000    -0.114000000
H     1.705000000     2.003000000     0.553000000
C     0.460000000     0.552000000     0.164000000
H    -0.088000000     0.903000000     0.964000000
C     0.004000000    -0.481000000    -0.621000000
H    -1.009000000    -0.834000000    -0.447000000
C     0.795000000    -0.932000000    -1.646000000
H     0.434000000    -1.765000000    -2.244000000
C     2.093000000    -0.393000000    -1.837000000
C     3.075000000    -1.037000000    -2.805000000
O     3.026000000    -2.217000000    -3.111000000
O     3.988000000    -0.345000000    -3.298000000
O     8.031000000     2.610000000    -1.442000000
H     7.298000000     2.332000000    -0.893000000
H     7.650000000     2.722000000    -2.312000000
O     6.265000000     0.465000000    -6.183000000
H     5.406000000     0.339000000    -6.587000000
H     6.177000000     1.276000000    -5.682000000
O     4.390000000    -1.692000000    -8.036000000
H     5.130000000    -1.965000000    -7.495000000
H     3.684000000    -1.528000000    -7.411000000
O     5.463000000    -5.615000000    -5.178000000
H     4.710000000    -5.262000000    -4.705000000
H     6.032000000    -5.967000000    -4.493000000
O     2.710000000     1.733000000    -7.837000000
H     2.459000000     1.473000000    -6.950000000
H     3.460000000     2.314000000    -7.712000000
O     1.343000000    -2.261000000    -5.447000000
H     1.955000000    -2.436000000    -4.732000000
H     0.929000000    -3.107000000    -5.619000000
O     7.610000000    -3.647000000    -3.739000000
H     7.060000000    -2.917000000    -4.022000000
H     8.407000000    -3.564000000    -4.264000000
O     5.853000000    -3.489000000    -6.898000000
H     5.856000000    -4.158000000    -6.213000000
H     6.717000000    -3.557000000    -7.303000000
O     8.824000000    -0.508000000    -3.969000000
H     9.156000000    -0.151000000    -3.145000000
H     7.967000000    -0.871000000    -3.744000000
O     6.709000000     2.602000000    -4.027000000
H     7.532000000     2.346000000    -4.444000000
H     6.504000000     3.456000000    -4.408000000
O     9.281000000    -3.153000000    -0.784000000
H     8.663000000    -2.549000000    -1.196000000
H     9.771000000    -3.529000000    -1.515000000
O     3.350000000    -4.614000000    -3.710000000
H     3.192000000    -3.693000000    -3.505000000
H     3.108000000    -5.082000000    -2.910000000
O     3.399000000    -0.427000000    -5.837000000
H     3.558000000    -0.232000000    -4.913000000
H     2.645000000    -1.017000000    -5.831000000
O     6.050000000     0.753000000    -2.165000000
H     5.251000000     0.298000000    -2.429000000
H     6.062000000     1.547000000    -2.699000000
O     6.176000000    -1.551000000    -4.307000000
H     5.960000000    -0.961000000    -5.029000000
H     5.454000000    -1.446000000    -3.687000000
O     5.562000000    -3.253000000    -1.926000000
H     6.014000000    -3.845000000    -2.527000000
H     4.841000000    -2.892000000    -2.442000000
O     7.393000000    -1.242000000    -0.915000000
H     6.618000000    -1.772000000    -1.100000000
H     7.123000000    -0.345000000    -1.116000000
O     6.086000000    -5.943000000    -0.358000000
H     5.486000000    -5.393000000     0.147000000
H     6.955000000    -5.707000000    -0.035000000
O     1.322000000    -5.111000000    -6.025000000
H     1.577000000    -5.306000000    -6.927000000
H     2.097000000    -4.699000000    -5.641000000
