215
-1441.57568
C     4.194000000     0.420000000     2.500000000
H     3.712000000    -0.347000000     3.101000000
C     3.499000000     1.593000000     2.236000000
C     4.128000000     2.599000000     1.506000000
H     3.530000000     3.490000000     1.332000000
C     2.048000000     1.718000000     2.848000000
O     2.003000000     1.060000000     4.099000000
H     1.307000000     1.279000000     2.163000000
O     1.793000000     3.127000000     3.036000000
C     0.532000000     3.454000000     2.667000000
C     0.288000000     4.292000000     1.571000000
H     1.171000000     4.643000000     1.044000000
C    -1.024000000     4.472000000     1.131000000
O    -1.051000000     5.115000000    -0.153000000
C    -2.111000000     3.979000000     1.770000000
C    -3.545000000     4.228000000     1.326000000
H    -4.214000000     4.329000000     2.183000000
C    -3.964000000     3.079000000     0.457000000
C    -4.647000000     1.950000000     1.027000000
H    -5.059000000     1.990000000     2.032000000
H    -3.664000000     5.194000000     0.831000000
C    -1.863000000     3.297000000     2.966000000
H    -2.733000000     3.041000000     3.566000000
C    -0.549000000     3.033000000     3.386000000
C    -0.415000000     2.331000000     4.694000000
H    -1.206000000     2.672000000     5.365000000
H     0.484000000     2.822000000     5.072000000
C    -0.290000000     0.852000000     4.530000000
C    -1.427000000     0.065000000     4.692000000
H    -2.382000000     0.548000000     4.879000000
C     0.948000000     0.196000000     4.379000000
C     1.055000000    -1.169000000     4.214000000
H     1.988000000    -1.667000000     3.964000000
C    -0.096000000    -1.938000000     4.339000000
O     0.034000000    -3.221000000     3.959000000
C    -0.247000000    -3.517000000     2.600000000
C     0.773000000    -4.590000000     2.049000000
C     0.560000000    -5.393000000     0.992000000
H    -0.431000000    -5.377000000     0.546000000
C     2.083000000    -4.676000000     2.652000000
H     2.369000000    -3.979000000     3.435000000
O    -1.617000000    -3.968000000     2.558000000
H    -0.182000000    -2.568000000     2.048000000
C    -1.328000000    -1.294000000     4.477000000
C    -2.584000000    -1.967000000     4.392000000
H    -3.317000000    -1.579000000     5.102000000
H    -2.355000000    -2.928000000     4.857000000
C    -3.152000000    -2.139000000     2.980000000
C    -4.104000000    -1.222000000     2.429000000
H    -4.495000000    -0.442000000     3.077000000
C    -2.645000000    -3.120000000     2.110000000
C    -3.123000000    -3.170000000     0.803000000
H    -2.692000000    -3.931000000     0.158000000
C    -4.176000000    -2.371000000     0.378000000
O    -4.459000000    -2.321000000    -0.975000000
C    -3.820000000    -1.352000000    -1.854000000
C    -3.117000000    -1.948000000    -3.126000000
C    -2.285000000    -3.088000000    -3.086000000
H    -2.035000000    -3.524000000    -2.122000000
C    -3.230000000    -1.225000000    -4.271000000
H    -3.877000000    -0.355000000    -4.342000000
O    -4.663000000    -0.165000000    -2.027000000
H    -3.033000000    -0.902000000    -1.230000000
C    -4.596000000    -1.329000000     1.161000000
C    -5.630000000    -0.310000000     0.737000000
H    -6.196000000     0.015000000     1.613000000
H    -6.377000000    -0.728000000     0.059000000
C    -4.969000000     0.904000000     0.176000000
C    -4.453000000     0.884000000    -1.162000000
C    -3.754000000     1.972000000    -1.673000000
H    -3.290000000     1.882000000    -2.652000000
C    -3.524000000     3.076000000    -0.902000000
O    -2.763000000     4.061000000    -1.500000000
C    -1.297000000     4.180000000    -1.186000000
H    -1.011000000     3.187000000    -0.808000000
C    -0.323000000     4.318000000    -2.343000000
C     0.995000000     4.908000000    -2.150000000
H     1.287000000     5.420000000    -1.237000000
C    -0.686000000     3.725000000    -3.557000000
H    -1.650000000     3.223000000    -3.597000000
C     0.207000000     3.717000000    -4.615000000
O    -0.188000000     3.305000000    -5.814000000
C     1.504000000     4.277000000    -4.449000000
H     2.165000000     4.224000000    -5.311000000
C     1.893000000     4.812000000    -3.202000000
O     3.191000000     5.368000000    -3.168000000
C     3.886000000     5.456000000    -1.958000000
C     4.648000000     4.374000000    -1.498000000
H     4.815000000     3.492000000    -2.111000000
C     4.028000000     6.737000000    -1.345000000
H     3.546000000     7.610000000    -1.776000000
C     4.856000000     6.920000000    -0.209000000
H     4.762000000     7.806000000     0.413000000
C     5.439000000     5.817000000     0.337000000
H     5.947000000     5.886000000     1.295000000
C     5.441000000     4.598000000    -0.349000000
O     6.056000000     3.529000000     0.298000000
C     5.393000000     2.467000000     1.011000000
C     6.115000000     1.272000000     1.316000000
H     7.160000000     1.205000000     1.025000000
C     5.521000000     0.221000000     1.992000000
O     6.036000000    -1.032000000     2.027000000
C     5.637000000    -2.015000000     2.878000000
C     5.150000000    -3.227000000     2.352000000
H     5.151000000    -3.386000000     1.276000000
C     5.579000000    -1.836000000     4.271000000
H     5.955000000    -0.914000000     4.706000000
C     5.294000000    -2.929000000     5.119000000
H     5.405000000    -2.773000000     6.189000000
C     4.901000000    -4.151000000     4.560000000
H     4.617000000    -4.986000000     5.196000000
C     4.817000000    -4.274000000     3.203000000
O     4.349000000    -5.459000000     2.668000000
C     3.023000000    -5.617000000     2.218000000
C     2.770000000    -6.355000000     1.110000000
H     3.582000000    -6.950000000     0.698000000
C     1.586000000    -6.202000000     0.456000000
O     1.343000000    -7.061000000    -0.589000000
C     0.439000000    -6.891000000    -1.634000000
C     0.347000000    -5.712000000    -2.378000000
H     1.154000000    -4.984000000    -2.339000000
C    -0.549000000    -7.826000000    -1.917000000
H    -0.482000000    -8.719000000    -1.300000000
C    -1.648000000    -7.548000000    -2.779000000
H    -2.442000000    -8.289000000    -2.826000000
C    -1.679000000    -6.418000000    -3.559000000
H    -2.441000000    -6.365000000    -4.332000000
C    -0.648000000    -5.502000000    -3.335000000
O    -0.555000000    -4.321000000    -4.064000000
C    -1.578000000    -3.406000000    -4.180000000
C    -1.714000000    -2.722000000    -5.410000000
H    -1.038000000    -2.975000000    -6.223000000
C    -2.529000000    -1.570000000    -5.442000000
O    -2.658000000    -0.791000000    -6.551000000
C    -2.560000000     0.587000000    -6.497000000
C    -3.611000000     1.368000000    -7.019000000
H    -4.484000000     0.869000000    -7.431000000
C    -3.588000000     2.751000000    -6.964000000
H    -4.389000000     3.326000000    -7.420000000
C    -2.406000000     3.394000000    -6.600000000
H    -2.248000000     4.467000000    -6.674000000
C    -1.303000000     2.622000000    -6.092000000
C    -1.402000000     1.240000000    -6.028000000
H    -0.583000000     0.733000000    -5.525000000
C     1.298000000     1.199000000    -1.726000000
H     1.602000000     2.096000000    -2.260000000
C     0.556000000     1.275000000    -0.525000000
H     0.520000000     2.209000000     0.029000000
C    -0.023000000     0.101000000    -0.021000000
H    -0.585000000     0.143000000     0.914000000
C     0.127000000    -1.135000000    -0.705000000
H    -0.279000000    -2.002000000    -0.190000000
C     0.724000000    -1.223000000    -1.963000000
H     0.678000000    -2.130000000    -2.561000000
C     1.327000000    -0.043000000    -2.490000000
C     1.864000000    -0.119000000    -3.916000000
O     1.874000000    -1.095000000    -4.618000000
O     2.394000000     0.892000000    -4.310000000
O     8.239000000     2.262000000    -2.739000000
H     7.645000000     1.573000000    -3.038000000
H     7.853000000     3.072000000    -3.073000000
O     1.997000000     2.134000000    -6.802000000
H     1.203000000     2.588000000    -6.518000000
H     2.200000000     1.536000000    -6.083000000
O     5.236000000    -1.088000000    -8.891000000
H     5.752000000    -1.890000000    -8.974000000
H     4.765000000    -1.190000000    -8.063000000
O     1.491000000    -3.028000000    -9.174000000
H     1.519000000    -2.523000000    -9.986000000
H     1.224000000    -2.395000000    -8.507000000
O     1.989000000    -4.071000000    -6.374000000
H     1.550000000    -3.275000000    -6.075000000
H     2.289000000    -3.861000000    -7.258000000
O     3.351000000    -6.376000000    -5.029000000
H     2.890000000    -5.689000000    -5.511000000
H     3.298000000    -7.145000000    -5.596000000
O     7.377000000    -1.748000000    -5.575000000
H     6.677000000    -1.611000000    -6.214000000
H     7.100000000    -1.252000000    -4.805000000
O    -0.056000000     1.091000000    -8.760000000
H    -0.283000000     1.994000000    -8.539000000
H     0.799000000     1.156000000    -9.186000000
O     6.253000000    -0.438000000    -3.347000000
H     5.742000000     0.278000000    -3.725000000
H     5.626000000    -0.923000000    -2.811000000
O     5.702000000     4.211000000    -5.191000000
H     6.420000000     4.331000000    -4.569000000
H     5.429000000     5.101000000    -5.417000000
O     2.946000000    -3.501000000    -3.627000000
H     2.643000000    -2.732000000    -4.110000000
H     2.505000000    -4.238000000    -4.050000000
O     1.380000000    -0.987000000    -7.167000000
H     1.671000000    -0.869000000    -6.263000000
H     1.054000000    -0.125000000    -7.428000000
O     3.299000000     4.094000000    -8.019000000
H     2.897000000     3.227000000    -8.055000000
H     4.239000000     3.925000000    -8.082000000
O    -1.768000000    -1.016000000    -9.003000000
H    -1.934000000    -1.283000000    -8.099000000
H    -1.297000000    -0.186000000    -8.926000000
O     4.903000000     1.738000000    -4.344000000
H     3.999000000     1.459000000    -4.201000000
H     4.830000000     2.647000000    -4.635000000
O     4.389000000    -1.105000000    -6.090000000
H     4.388000000    -0.149000000    -6.052000000
H     3.602000000    -1.365000000    -5.611000000
O     4.588000000    -2.346000000    -1.486000000
H     4.135000000    -2.665000000    -2.267000000
H     3.885000000    -2.069000000    -0.898000000
O     7.379000000    -1.565000000    -1.068000000
H     7.211000000    -0.685000000    -1.403000000
H     6.517000000    -1.980000000    -1.042000000
O     4.619000000    -5.572000000    -2.686000000
H     4.225000000    -4.701000000    -2.651000000
H     4.097000000    -6.045000000    -3.335000000
