215
-1449.92818
C     3.642000000     1.559000000     2.721000000
H     3.259000000     0.732000000     3.313000000
C     2.859000000     2.679000000     2.563000000
C     3.339000000     3.787000000     1.879000000
H     2.745000000     4.680000000     1.702000000
C     1.391000000     2.607000000     3.018000000
O     1.169000000     2.063000000     4.344000000
H     0.757000000     2.064000000     2.301000000
O     0.833000000     4.000000000     3.152000000
C    -0.277000000     4.216000000     2.466000000
C    -0.216000000     4.617000000     1.097000000
H     0.722000000     4.947000000     0.659000000
C    -1.366000000     4.547000000     0.321000000
O    -1.167000000     4.670000000    -1.032000000
C    -2.597000000     4.121000000     0.895000000
C    -3.899000000     3.997000000     0.186000000
H    -4.737000000     4.030000000     0.885000000
C    -3.996000000     2.602000000    -0.493000000
C    -4.630000000     1.551000000     0.200000000
H    -5.102000000     1.763000000     1.156000000
H    -4.011000000     4.824000000    -0.518000000
C    -2.663000000     3.664000000     2.248000000
H    -3.545000000     3.321000000     2.783000000
C    -1.514000000     3.645000000     2.976000000
C    -1.600000000     3.050000000     4.402000000
H    -2.614000000     3.232000000     4.761000000
H    -0.894000000     3.507000000     5.098000000
C    -1.225000000     1.612000000     4.525000000
C    -2.186000000     0.635000000     4.621000000
H    -3.199000000     0.965000000     4.839000000
C     0.143000000     1.195000000     4.545000000
C     0.467000000    -0.156000000     4.502000000
H     1.472000000    -0.558000000     4.400000000
C    -0.537000000    -1.149000000     4.562000000
O    -0.194000000    -2.412000000     4.432000000
C    -0.290000000    -3.020000000     3.148000000
C     0.948000000    -3.745000000     2.679000000
C     0.936000000    -4.430000000     1.429000000
H     0.031000000    -4.449000000     0.828000000
C     2.174000000    -3.686000000     3.384000000
H     2.187000000    -3.199000000     4.356000000
O    -1.561000000    -3.813000000     2.961000000
H    -0.289000000    -2.151000000     2.474000000
C    -1.899000000    -0.714000000     4.608000000
C    -2.981000000    -1.733000000     4.587000000
H    -3.842000000    -1.285000000     5.086000000
H    -2.757000000    -2.612000000     5.195000000
C    -3.398000000    -2.192000000     3.150000000
C    -4.422000000    -1.530000000     2.493000000
H    -5.012000000    -0.739000000     2.950000000
C    -2.775000000    -3.218000000     2.462000000
C    -3.074000000    -3.596000000     1.200000000
H    -2.534000000    -4.374000000     0.666000000
C    -3.889000000    -2.730000000     0.457000000
O    -3.976000000    -2.973000000    -0.849000000
C    -3.241000000    -2.130000000    -1.797000000
C    -2.596000000    -2.899000000    -2.968000000
C    -2.191000000    -4.258000000    -2.834000000
H    -2.567000000    -4.805000000    -1.973000000
C    -2.059000000    -2.232000000    -4.053000000
H    -2.131000000    -1.149000000    -4.120000000
O    -4.097000000    -1.133000000    -2.302000000
H    -2.477000000    -1.631000000    -1.182000000
C    -4.549000000    -1.694000000     1.115000000
C    -5.552000000    -0.841000000     0.332000000
H    -6.301000000    -0.405000000     0.997000000
H    -6.101000000    -1.494000000    -0.350000000
C    -4.778000000     0.308000000    -0.448000000
C    -4.284000000     0.128000000    -1.725000000
C    -3.602000000     1.158000000    -2.392000000
H    -3.067000000     0.997000000    -3.325000000
C    -3.457000000     2.409000000    -1.760000000
O    -2.636000000     3.344000000    -2.327000000
C    -1.269000000     3.515000000    -1.919000000
H    -1.030000000     2.688000000    -1.235000000
C    -0.235000000     3.524000000    -3.055000000
C     1.070000000     3.931000000    -2.778000000
H     1.289000000     4.295000000    -1.778000000
C    -0.492000000     2.912000000    -4.289000000
H    -1.463000000     2.439000000    -4.407000000
C     0.475000000     2.962000000    -5.293000000
O     0.165000000     2.501000000    -6.489000000
C     1.702000000     3.569000000    -5.025000000
H     2.322000000     3.592000000    -5.917000000
C     2.021000000     4.035000000    -3.810000000
O     3.296000000     4.500000000    -3.566000000
C     3.692000000     5.322000000    -2.476000000
C     4.283000000     4.673000000    -1.377000000
H     4.500000000     3.610000000    -1.445000000
C     3.300000000     6.666000000    -2.428000000
H     2.842000000     7.135000000    -3.295000000
C     3.559000000     7.363000000    -1.262000000
H     3.208000000     8.376000000    -1.083000000
C     4.103000000     6.715000000    -0.152000000
H     4.233000000     7.273000000     0.772000000
C     4.474000000     5.368000000    -0.203000000
O     5.150000000     4.856000000     0.843000000
C     4.634000000     3.718000000     1.383000000
C     5.400000000     2.564000000     1.471000000
H     6.326000000     2.484000000     0.907000000
C     4.928000000     1.480000000     2.109000000
O     5.710000000     0.414000000     2.259000000
C     5.451000000    -0.598000000     3.181000000
C     4.994000000    -1.862000000     2.811000000
H     4.639000000    -2.032000000     1.798000000
C     5.835000000    -0.359000000     4.520000000
H     6.243000000     0.623000000     4.747000000
C     5.808000000    -1.333000000     5.475000000
H     6.100000000    -1.107000000     6.497000000
C     5.361000000    -2.629000000     5.093000000
H     5.508000000    -3.392000000     5.852000000
C     4.970000000    -2.885000000     3.772000000
O     4.537000000    -4.179000000     3.452000000
C     3.307000000    -4.291000000     2.869000000
C     3.301000000    -4.869000000     1.584000000
H     4.238000000    -5.210000000     1.150000000
C     2.118000000    -4.904000000     0.867000000
O     2.150000000    -5.478000000    -0.345000000
C     1.210000000    -6.324000000    -0.937000000
C     0.568000000    -5.951000000    -2.077000000
H     0.764000000    -5.040000000    -2.636000000
C     0.868000000    -7.536000000    -0.301000000
H     1.290000000    -7.796000000     0.667000000
C    -0.144000000    -8.312000000    -0.838000000
H    -0.424000000    -9.217000000    -0.305000000
C    -0.862000000    -7.918000000    -1.929000000
H    -1.705000000    -8.484000000    -2.318000000
C    -0.537000000    -6.720000000    -2.546000000
O    -1.270000000    -6.338000000    -3.582000000
C    -1.499000000    -4.955000000    -3.792000000
C    -1.021000000    -4.231000000    -4.952000000
H    -0.527000000    -4.835000000    -5.709000000
C    -1.303000000    -2.936000000    -5.005000000
O    -0.522000000    -2.222000000    -5.902000000
C    -0.971000000    -0.967000000    -6.374000000
C    -2.219000000    -0.847000000    -7.023000000
H    -2.841000000    -1.731000000    -7.137000000
C    -2.636000000     0.381000000    -7.476000000
H    -3.633000000     0.431000000    -7.906000000
C    -1.806000000     1.495000000    -7.358000000
H    -2.032000000     2.497000000    -7.714000000
C    -0.603000000     1.377000000    -6.686000000
C    -0.194000000     0.148000000    -6.121000000
H     0.714000000     0.032000000    -5.534000000
C     2.622000000     1.001000000    -0.734000000
H     3.518000000     1.615000000    -0.750000000
C     1.360000000     1.542000000    -0.414000000
H     1.176000000     2.602000000    -0.262000000
C     0.261000000     0.692000000    -0.106000000
H    -0.772000000     1.085000000     0.016000000
C     0.425000000    -0.686000000    -0.218000000
H    -0.519000000    -1.180000000     0.000000000
C     1.621000000    -1.200000000    -0.488000000
H     1.753000000    -2.277000000    -0.550000000
C     2.768000000    -0.386000000    -0.765000000
C     4.132000000    -0.939000000    -0.934000000
O     4.426000000    -2.142000000    -0.818000000
O     4.829000000    -0.260000000    -1.560000000
O     9.081000000     3.008000000    -0.013000000
H     8.355000000     2.509000000    -0.388000000
H     9.854000000     2.696000000    -0.483000000
O     4.798000000     1.582000000    -6.041000000
H     4.909000000     1.634000000    -5.091000000
H     5.687000000     1.485000000    -6.381000000
O     4.015000000    -2.210000000    -6.835000000
H     3.830000000    -2.007000000    -5.918000000
H     3.526000000    -3.015000000    -7.004000000
O     6.180000000    -6.312000000    -2.994000000
H     5.512000000    -5.889000000    -2.454000000
H     6.471000000    -5.626000000    -3.595000000
O     3.796000000    -1.489000000    -4.271000000
H     4.704000000    -1.716000000    -4.070000000
H     3.351000000    -1.508000000    -3.424000000
O     8.617000000    -4.389000000    -1.954000000
H     8.200000000    -3.530000000    -2.017000000
H     9.218000000    -4.310000000    -1.213000000
O     6.261000000    -2.379000000    -4.850000000
H     5.799000000    -2.101000000    -5.641000000
H     6.813000000    -3.106000000    -5.137000000
O    10.890000000    -1.010000000    -1.620000000
H    11.356000000    -0.326000000    -1.141000000
H    10.179000000    -1.271000000    -1.035000000
O     7.346000000     2.028000000    -3.673000000
H     6.393000000     2.000000000    -3.588000000
H     7.504000000     2.624000000    -4.405000000
O    10.030000000     0.762000000     2.090000000
H     9.353000000     1.438000000     2.104000000
H     9.723000000     0.128000000     1.443000000
O     4.263000000    -4.544000000    -1.882000000
H     4.153000000    -3.649000000    -1.562000000
H     3.431000000    -4.974000000    -1.681000000
O     4.844000000     1.515000000    -3.329000000
H     4.895000000     0.898000000    -2.599000000
H     3.986000000     1.927000000    -3.235000000
O     8.224000000    -4.889000000    -4.833000000
H     8.432000000    -4.834000000    -3.900000000
H     8.619000000    -5.713000000    -5.118000000
O     7.180000000     1.113000000    -1.026000000
H     6.312000000     0.712000000    -0.982000000
H     7.318000000     1.285000000    -1.957000000
O     6.956000000    -2.199000000    -2.471000000
H     6.699000000    -2.268000000    -3.390000000
H     6.167000000    -1.892000000    -2.024000000
O     6.720000000    -3.126000000     0.407000000
H     5.992000000    -2.557000000     0.155000000
H     6.687000000    -3.848000000    -0.221000000
O     8.952000000    -0.926000000     0.251000000
H     8.314000000    -1.622000000     0.409000000
H     8.435000000    -0.203000000    -0.104000000
O     9.371000000    -3.938000000     0.653000000
H     8.508000000    -3.526000000     0.671000000
H     9.589000000    -4.078000000     1.574000000
O     9.118000000    -1.109000000    -4.059000000
H     8.465000000    -1.306000000    -3.388000000
H     9.934000000    -0.992000000    -3.572000000
