215
-1473.74434
C     4.413000000     0.244000000     2.581000000
H     4.061000000    -0.713000000     2.956000000
C     3.663000000     1.388000000     2.724000000
C     4.168000000     2.524000000     2.105000000
H     3.569000000     3.429000000     2.042000000
C     2.260000000     1.390000000     3.363000000
O     2.137000000     0.571000000     4.538000000
H     1.466000000     1.137000000     2.645000000
O     1.955000000     2.721000000     3.857000000
C     0.698000000     3.168000000     3.469000000
C     0.593000000     3.943000000     2.331000000
H     1.471000000     4.390000000     1.873000000
C    -0.657000000     4.193000000     1.829000000
O    -0.706000000     4.870000000     0.592000000
C    -1.811000000     3.743000000     2.484000000
C    -3.244000000     4.037000000     1.912000000
H    -3.911000000     3.998000000     2.776000000
C    -3.669000000     2.982000000     0.923000000
C    -4.446000000     1.882000000     1.329000000
H    -4.772000000     1.812000000     2.363000000
H    -3.224000000     5.025000000     1.447000000
C    -1.665000000     3.029000000     3.681000000
H    -2.560000000     2.736000000     4.224000000
C    -0.408000000     2.727000000     4.165000000
C    -0.383000000     1.868000000     5.407000000
H    -1.273000000     1.892000000     6.040000000
H     0.447000000     2.203000000     6.034000000
C    -0.240000000     0.317000000     5.040000000
C    -1.377000000    -0.372000000     4.759000000
H    -2.368000000    -0.046000000     5.062000000
C     0.986000000    -0.203000000     4.647000000
C     1.099000000    -1.511000000     4.232000000
H     2.102000000    -1.823000000     3.951000000
C    -0.079000000    -2.294000000     4.050000000
O     0.116000000    -3.514000000     3.421000000
C    -0.329000000    -3.634000000     2.004000000
C     0.677000000    -4.469000000     1.211000000
C     0.419000000    -5.025000000    -0.069000000
H    -0.524000000    -4.829000000    -0.573000000
C     1.970000000    -4.549000000     1.696000000
H     2.237000000    -4.012000000     2.602000000
O    -1.627000000    -4.223000000     1.868000000
H    -0.398000000    -2.695000000     1.435000000
C    -1.333000000    -1.735000000     4.294000000
C    -2.592000000    -2.548000000     4.076000000
H    -3.397000000    -2.239000000     4.746000000
H    -2.271000000    -3.514000000     4.472000000
C    -3.181000000    -2.551000000     2.639000000
C    -4.253000000    -1.638000000     2.353000000
H    -4.429000000    -0.899000000     3.131000000
C    -2.693000000    -3.442000000     1.660000000
C    -3.180000000    -3.284000000     0.339000000
H    -2.710000000    -3.791000000    -0.500000000
C    -4.251000000    -2.424000000     0.067000000
O    -4.576000000    -2.231000000    -1.260000000
C    -3.838000000    -1.140000000    -1.938000000
C    -3.260000000    -1.485000000    -3.284000000
C    -2.897000000    -2.819000000    -3.515000000
H    -3.095000000    -3.610000000    -2.796000000
C    -3.008000000    -0.493000000    -4.246000000
H    -3.299000000     0.543000000    -4.095000000
O    -4.595000000     0.113000000    -1.969000000
H    -3.003000000    -0.910000000    -1.259000000
C    -4.756000000    -1.515000000     1.068000000
C    -5.666000000    -0.286000000     0.674000000
H    -6.234000000     0.067000000     1.537000000
H    -6.375000000    -0.433000000    -0.144000000
C    -4.791000000     0.924000000     0.325000000
C    -4.329000000     1.013000000    -0.975000000
C    -3.603000000     2.185000000    -1.342000000
H    -3.353000000     2.399000000    -2.378000000
C    -3.285000000     3.155000000    -0.403000000
O    -2.456000000     4.149000000    -0.858000000
C    -1.057000000     4.025000000    -0.551000000
H    -0.773000000     3.043000000    -0.144000000
C    -0.225000000     4.285000000    -1.833000000
C     1.156000000     4.591000000    -1.676000000
H     1.502000000     4.583000000    -0.646000000
C    -0.725000000     4.092000000    -3.149000000
H    -1.799000000     3.964000000    -3.255000000
C     0.099000000     4.267000000    -4.300000000
O    -0.389000000     4.351000000    -5.586000000
C     1.406000000     4.657000000    -4.084000000
H     2.039000000     4.892000000    -4.936000000
C     1.996000000     4.797000000    -2.784000000
O     3.352000000     5.101000000    -2.695000000
C     3.993000000     5.305000000    -1.460000000
C     4.793000000     4.316000000    -0.847000000
H     4.994000000     3.343000000    -1.289000000
C     3.728000000     6.486000000    -0.845000000
H     3.136000000     7.242000000    -1.354000000
C     4.418000000     6.818000000     0.311000000
H     4.480000000     7.852000000     0.639000000
C     5.107000000     5.813000000     0.977000000
H     5.715000000     6.105000000     1.830000000
C     5.257000000     4.582000000     0.454000000
O     5.983000000     3.600000000     1.091000000
C     5.428000000     2.482000000     1.577000000
C     6.225000000     1.392000000     1.718000000
H     7.243000000     1.405000000     1.336000000
C     5.693000000     0.172000000     2.122000000
O     6.508000000    -0.966000000     2.303000000
C     5.962000000    -2.192000000     2.778000000
C     5.349000000    -3.023000000     1.878000000
H     5.266000000    -2.629000000     0.868000000
C     6.123000000    -2.547000000     4.181000000
H     6.536000000    -1.776000000     4.826000000
C     5.669000000    -3.779000000     4.623000000
H     5.867000000    -4.086000000     5.647000000
C     5.133000000    -4.670000000     3.668000000
H     4.893000000    -5.703000000     3.906000000
C     4.900000000    -4.292000000     2.350000000
O     4.310000000    -5.141000000     1.402000000
C     2.984000000    -5.167000000     0.982000000
C     2.649000000    -5.850000000    -0.168000000
H     3.426000000    -6.355000000    -0.735000000
C     1.343000000    -5.846000000    -0.698000000
O     1.219000000    -6.532000000    -1.916000000
C     0.100000000    -6.529000000    -2.700000000
C    -0.346000000    -5.358000000    -3.373000000
H     0.246000000    -4.460000000    -3.216000000
C    -0.582000000    -7.700000000    -2.814000000
H    -0.211000000    -8.577000000    -2.289000000
C    -1.765000000    -7.739000000    -3.564000000
H    -2.269000000    -8.697000000    -3.667000000
C    -2.225000000    -6.620000000    -4.270000000
H    -3.053000000    -6.709000000    -4.968000000
C    -1.474000000    -5.467000000    -4.200000000
O    -1.837000000    -4.426000000    -5.074000000
C    -2.340000000    -3.177000000    -4.743000000
C    -2.065000000    -2.195000000    -5.718000000
H    -1.537000000    -2.453000000    -6.633000000
C    -2.425000000    -0.897000000    -5.463000000
O    -2.160000000     0.015000000    -6.463000000
C    -2.263000000     1.351000000    -6.308000000
C    -3.554000000     1.866000000    -6.492000000
H    -4.373000000     1.231000000    -6.821000000
C    -3.764000000     3.236000000    -6.473000000
H    -4.737000000     3.630000000    -6.754000000
C    -2.678000000     4.098000000    -6.077000000
H    -2.787000000     5.173000000    -5.956000000
C    -1.475000000     3.519000000    -5.848000000
C    -1.209000000     2.171000000    -5.981000000
H    -0.196000000     1.782000000    -6.053000000
C     1.698000000     1.272000000    -1.847000000
H     2.482000000     1.987000000    -2.079000000
C     1.095000000     1.205000000    -0.561000000
H     1.361000000     1.992000000     0.140000000
C     0.070000000     0.312000000    -0.288000000
H    -0.459000000     0.353000000     0.678000000
C    -0.378000000    -0.610000000    -1.242000000
H    -1.053000000    -1.427000000    -0.997000000
C     0.188000000    -0.529000000    -2.532000000
H    -0.134000000    -1.216000000    -3.311000000
C     1.177000000     0.439000000    -2.873000000
C     1.716000000     0.539000000    -4.316000000
O     1.710000000    -0.508000000    -4.874000000
O     2.322000000     1.528000000    -4.728000000
O     1.188000000    -3.913000000    -6.916000000
H     0.971000000    -4.824000000    -7.114000000
H     0.702000000    -3.405000000    -7.566000000
O     5.196000000     1.205000000    -7.719000000
H     5.837000000     0.500000000    -7.810000000
H     4.929000000     1.168000000    -6.801000000
O     7.853000000     2.189000000    -2.509000000
H     6.994000000     1.777000000    -2.409000000
H     7.670000000     3.129000000    -2.505000000
O     2.001000000     2.390000000    -7.226000000
H     2.007000000     2.189000000    -6.290000000
H     2.105000000     1.541000000    -7.654000000
O     6.099000000    -2.698000000    -4.529000000
H     6.166000000    -2.973000000    -3.615000000
H     5.774000000    -3.472000000    -4.989000000
O     0.989000000    -2.831000000    -9.445000000
H     1.229000000    -1.946000000    -9.171000000
H     1.822000000    -3.300000000    -9.497000000
O     2.141000000    -3.072000000    -4.562000000
H     1.885000000    -3.397000000    -5.425000000
H     1.964000000    -2.132000000    -4.597000000
O     3.890000000     4.541000000    -7.987000000
H     4.308000000     4.535000000    -7.126000000
H     3.214000000     3.865000000    -7.929000000
O     4.285000000    -4.104000000    -6.510000000
H     3.773000000    -4.798000000    -6.926000000
H     3.641000000    -3.590000000    -6.024000000
O     5.302000000     0.202000000    -2.038000000
H     4.628000000    -0.383000000    -1.691000000
H     4.991000000     0.433000000    -2.913000000
O     3.284000000    -0.165000000    -9.348000000
H     3.942000000     0.392000000    -8.931000000
H     2.624000000    -0.305000000    -8.668000000
O     3.598000000    -3.855000000    -2.537000000
H     2.891000000    -3.521000000    -3.089000000
H     3.782000000    -4.728000000    -2.885000000
O     1.087000000    -0.643000000    -7.600000000
H     1.259000000    -0.729000000    -6.662000000
H     0.280000000    -0.130000000    -7.650000000
O     7.765000000     0.050000000    -6.518000000
H     8.378000000     0.711000000    -6.837000000
H     7.590000000     0.303000000    -5.611000000
O     4.561000000     3.543000000    -4.846000000
H     3.900000000     2.852000000    -4.815000000
H     4.235000000     4.213000000    -4.244000000
O     4.565000000     0.188000000    -5.181000000
H     3.635000000     0.375000000    -5.056000000
H     4.635000000    -0.761000000    -5.082000000
O     0.918000000     4.265000000    -8.750000000
H     1.694000000     4.299000000    -9.310000000
H     1.185000000     3.727000000    -8.004000000
O     3.137000000    -1.323000000    -0.880000000
H     2.509000000    -2.010000000    -1.106000000
H     2.595000000    -0.569000000    -0.650000000
O     7.486000000    -1.247000000    -1.238000000
H     6.998000000    -2.049000000    -1.427000000
H     6.827000000    -0.553000000    -1.270000000
