215
-1470.88209
C     4.245000000     2.386000000     2.631000000
H     4.075000000     1.668000000     3.430000000
C     3.169000000     3.129000000     2.208000000
C     3.304000000     3.962000000     1.079000000
H     2.438000000     4.454000000     0.646000000
C     1.757000000     2.783000000     2.709000000
O     1.749000000     2.344000000     4.002000000
H     1.321000000     1.970000000     2.111000000
O     0.904000000     3.940000000     2.695000000
C    -0.415000000     3.836000000     2.280000000
C    -0.726000000     4.144000000     1.005000000
H     0.022000000     4.547000000     0.327000000
C    -2.022000000     4.037000000     0.535000000
O    -2.118000000     4.183000000    -0.803000000
C    -2.993000000     3.459000000     1.327000000
C    -4.368000000     3.171000000     0.782000000
H    -5.128000000     3.220000000     1.564000000
C    -4.349000000     1.842000000     0.116000000
C    -4.776000000     0.773000000     0.877000000
H    -5.129000000     0.961000000     1.888000000
H    -4.466000000     3.941000000     0.014000000
C    -2.673000000     3.142000000     2.661000000
H    -3.269000000     2.467000000     3.269000000
C    -1.442000000     3.478000000     3.214000000
C    -1.062000000     3.086000000     4.637000000
H    -1.804000000     3.159000000     5.435000000
H    -0.261000000     3.754000000     4.961000000
C    -0.477000000     1.665000000     4.706000000
C    -1.371000000     0.605000000     4.932000000
H    -2.393000000     0.861000000     5.199000000
C     0.855000000     1.369000000     4.300000000
C     1.330000000     0.026000000     4.308000000
H     2.368000000    -0.056000000     3.997000000
C     0.417000000    -1.030000000     4.475000000
O     0.906000000    -2.350000000     4.347000000
C     0.633000000    -2.923000000     3.030000000
C     1.944000000    -3.587000000     2.437000000
C     1.848000000    -4.482000000     1.368000000
H     0.852000000    -4.868000000     1.170000000
C     3.203000000    -3.100000000     2.790000000
H     3.311000000    -2.357000000     3.576000000
O    -0.375000000    -3.858000000     3.253000000
H     0.240000000    -2.138000000     2.367000000
C    -0.933000000    -0.765000000     4.823000000
C    -1.913000000    -1.803000000     4.938000000
H    -2.798000000    -1.341000000     5.380000000
H    -1.505000000    -2.569000000     5.601000000
C    -2.358000000    -2.340000000     3.586000000
C    -3.489000000    -1.817000000     2.967000000
H    -4.059000000    -1.077000000     3.522000000
C    -1.688000000    -3.355000000     2.934000000
C    -2.040000000    -3.741000000     1.631000000
H    -1.481000000    -4.541000000     1.154000000
C    -3.166000000    -3.191000000     0.979000000
O    -3.501000000    -3.640000000    -0.337000000
C    -3.171000000    -2.655000000    -1.375000000
C    -2.720000000    -3.333000000    -2.681000000
C    -2.115000000    -4.590000000    -2.565000000
H    -2.272000000    -5.114000000    -1.625000000
C    -2.641000000    -2.664000000    -3.928000000
H    -3.084000000    -1.680000000    -4.061000000
O    -4.402000000    -1.924000000    -1.589000000
H    -2.367000000    -1.963000000    -1.085000000
C    -3.900000000    -2.264000000     1.688000000
C    -5.196000000    -1.664000000     1.149000000
H    -5.904000000    -1.433000000     1.948000000
H    -5.833000000    -2.290000000     0.521000000
C    -4.883000000    -0.484000000     0.292000000
C    -4.481000000    -0.657000000    -1.031000000
C    -4.099000000     0.374000000    -1.825000000
H    -3.690000000     0.270000000    -2.827000000
C    -3.937000000     1.662000000    -1.249000000
O    -3.356000000     2.630000000    -2.030000000
C    -2.010000000     3.081000000    -1.690000000
H    -1.555000000     2.254000000    -1.125000000
C    -1.231000000     3.356000000    -2.976000000
C    -0.353000000     4.388000000    -2.992000000
H    -0.243000000     4.990000000    -2.093000000
C    -1.499000000     2.702000000    -4.158000000
H    -2.200000000     1.872000000    -4.207000000
C    -0.844000000     3.050000000    -5.389000000
O    -0.999000000     2.270000000    -6.494000000
C     0.017000000     4.117000000    -5.426000000
H     0.596000000     4.442000000    -6.286000000
C     0.344000000     4.738000000    -4.173000000
O     1.349000000     5.659000000    -4.182000000
C     2.072000000     6.026000000    -3.048000000
C     3.051000000     5.151000000    -2.503000000
H     3.194000000     4.109000000    -2.776000000
C     1.783000000     7.265000000    -2.483000000
H     1.049000000     7.896000000    -2.977000000
C     2.541000000     7.660000000    -1.376000000
H     2.497000000     8.716000000    -1.120000000
C     3.490000000     6.818000000    -0.751000000
H     4.149000000     7.239000000     0.004000000
C     3.709000000     5.551000000    -1.319000000
O     4.680000000     4.709000000    -0.746000000
C     4.555000000     3.979000000     0.391000000
C     5.628000000     3.278000000     0.899000000
H     6.550000000     3.314000000     0.325000000
C     5.468000000     2.495000000     1.994000000
O     6.605000000     1.722000000     2.359000000
C     6.440000000     0.524000000     3.036000000
C     6.186000000    -0.667000000     2.309000000
H     6.059000000    -0.564000000     1.235000000
C     6.349000000     0.503000000     4.442000000
H     6.569000000     1.403000000     5.011000000
C     6.261000000    -0.740000000     5.027000000
H     6.272000000    -0.908000000     6.101000000
C     6.136000000    -1.915000000     4.355000000
H     6.106000000    -2.836000000     4.930000000
C     5.991000000    -1.932000000     2.949000000
O     5.587000000    -3.009000000     2.223000000
C     4.320000000    -3.511000000     2.025000000
C     4.167000000    -4.370000000     0.877000000
H     5.018000000    -4.559000000     0.228000000
C     2.862000000    -4.857000000     0.582000000
O     2.703000000    -5.857000000    -0.347000000
C     1.552000000    -6.455000000    -0.699000000
C     0.944000000    -6.102000000    -1.913000000
H     1.340000000    -5.365000000    -2.607000000
C     1.017000000    -7.517000000     0.031000000
H     1.492000000    -7.869000000     0.943000000
C    -0.122000000    -8.096000000    -0.414000000
H    -0.360000000    -8.986000000     0.163000000
C    -0.714000000    -7.806000000    -1.630000000
H    -1.615000000    -8.314000000    -1.965000000
C    -0.158000000    -6.755000000    -2.329000000
O    -0.763000000    -6.375000000    -3.484000000
C    -1.358000000    -5.147000000    -3.608000000
C    -1.242000000    -4.455000000    -4.848000000
H    -0.501000000    -4.816000000    -5.556000000
C    -1.879000000    -3.226000000    -5.007000000
O    -1.596000000    -2.543000000    -6.131000000
C    -2.021000000    -1.229000000    -6.377000000
C    -3.316000000    -1.090000000    -6.856000000
H    -3.855000000    -2.018000000    -7.031000000
C    -3.877000000     0.152000000    -7.324000000
H    -4.878000000     0.275000000    -7.728000000
C    -3.052000000     1.243000000    -7.180000000
H    -3.346000000     2.226000000    -7.540000000
C    -1.761000000     1.131000000    -6.571000000
C    -1.290000000    -0.075000000    -6.099000000
H    -0.285000000     0.029000000    -5.698000000
C     1.759000000     0.496000000    -3.313000000
H     2.253000000     1.300000000    -3.852000000
C     0.951000000     0.904000000    -2.211000000
H     0.899000000     1.925000000    -1.842000000
C     0.217000000    -0.105000000    -1.548000000
H    -0.268000000     0.184000000    -0.659000000
C     0.286000000    -1.466000000    -1.873000000
H    -0.219000000    -2.192000000    -1.241000000
C     0.946000000    -1.855000000    -3.028000000
H     0.962000000    -2.904000000    -3.316000000
C     1.751000000    -0.877000000    -3.697000000
C     2.649000000    -1.266000000    -4.817000000
O     2.758000000    -2.433000000    -5.170000000
O     3.268000000    -0.404000000    -5.423000000
O     0.832000000     2.895000000    -9.034000000
H     1.007000000     2.190000000    -9.657000000
H     0.937000000     2.487000000    -8.174000000
O     1.691000000     0.963000000    -7.067000000
H     2.231000000     0.290000000    -6.654000000
H     1.193000000     0.494000000    -7.736000000
O     2.033000000    -5.761000000    -6.677000000
H     2.573000000    -5.277000000    -7.302000000
H     1.157000000    -5.391000000    -6.781000000
O     3.018000000     3.280000000    -7.090000000
H     2.656000000     3.535000000    -7.938000000
H     2.573000000     2.460000000    -6.876000000
O     3.117000000    -5.071000000    -4.196000000
H     2.851000000    -4.163000000    -4.343000000
H     2.819000000    -5.537000000    -4.977000000
O     6.222000000    -4.862000000    -6.003000000
H     5.548000000    -4.599000000    -6.630000000
H     6.992000000    -4.350000000    -6.250000000
O     7.811000000    -0.435000000    -5.415000000
H     8.377000000    -0.853000000    -4.766000000
H     8.353000000     0.255000000    -5.797000000
O     3.918000000     0.620000000    -1.600000000
H     3.079000000     0.164000000    -1.665000000
H     4.314000000     0.517000000    -2.465000000
O     3.435000000     0.556000000   -10.131000000
H     4.279000000     0.122000000   -10.260000000
H     2.835000000    -0.153000000    -9.901000000
O     5.933000000    -2.553000000    -1.291000000
H     6.510000000    -2.959000000    -0.645000000
H     5.790000000    -3.235000000    -1.947000000
O     1.091000000    -2.337000000    -7.450000000
H     0.454000000    -2.155000000    -6.758000000
H     1.903000000    -2.531000000    -6.983000000
O    -0.384000000    -4.839000000    -8.027000000
H    -0.057000000    -4.663000000    -8.909000000
H    -0.604000000    -3.976000000    -7.676000000
O     6.845000000    -1.246000000    -7.896000000
H     7.189000000    -0.518000000    -8.414000000
H     7.157000000    -1.077000000    -7.007000000
O     5.561000000     0.826000000    -4.301000000
H     4.746000000     0.692000000    -4.784000000
H     6.196000000     0.262000000    -4.742000000
O     4.453000000    -2.811000000    -7.309000000
H     5.183000000    -2.192000000    -7.271000000
H     3.961000000    -2.650000000    -6.504000000
O     3.169000000    -2.754000000    -9.623000000
H     3.847000000    -3.198000000   -10.133000000
H     3.543000000    -2.672000000    -8.746000000
O     0.845000000    -0.641000000    -9.453000000
H    -0.063000000    -0.924000000    -9.345000000
H     1.366000000    -1.400000000    -9.190000000
O     6.661000000     0.187000000    -1.272000000
H     5.782000000     0.565000000    -1.243000000
H     6.544000000    -0.659000000    -1.704000000
O     5.730000000    -4.200000000    -3.403000000
H     6.005000000    -4.438000000    -4.288000000
H     4.785000000    -4.069000000    -3.472000000
