215
-1454.17031
C     4.226000000     1.962000000     2.130000000
H     3.886000000     1.293000000     2.916000000
C     3.353000000     2.965000000     1.695000000
C     3.685000000     3.726000000     0.630000000
H     2.978000000     4.436000000     0.208000000
C     1.921000000     2.978000000     2.214000000
O     1.783000000     2.781000000     3.642000000
H     1.331000000     2.227000000     1.667000000
O     1.222000000     4.171000000     1.868000000
C    -0.058000000     4.276000000     1.477000000
C    -0.280000000     4.300000000     0.128000000
H     0.603000000     4.429000000    -0.492000000
C    -1.588000000     4.234000000    -0.364000000
O    -1.627000000     4.242000000    -1.714000000
C    -2.682000000     4.008000000     0.431000000
C    -4.035000000     3.716000000    -0.139000000
H    -4.814000000     3.911000000     0.601000000
C    -4.207000000     2.269000000    -0.583000000
C    -4.888000000     1.359000000     0.263000000
H    -5.302000000     1.715000000     1.203000000
H    -4.295000000     4.403000000    -0.947000000
C    -2.479000000     3.958000000     1.841000000
H    -3.370000000     3.752000000     2.428000000
C    -1.163000000     4.164000000     2.355000000
C    -0.929000000     3.922000000     3.824000000
H    -1.895000000     4.165000000     4.272000000
H    -0.171000000     4.635000000     4.155000000
C    -0.607000000     2.451000000     4.168000000
C    -1.658000000     1.547000000     4.471000000
H    -2.685000000     1.876000000     4.332000000
C     0.717000000     2.021000000     4.080000000
C     1.014000000     0.679000000     4.313000000
H     2.025000000     0.287000000     4.238000000
C    -0.002000000    -0.212000000     4.590000000
O     0.397000000    -1.491000000     4.737000000
C     0.212000000    -2.252000000     3.579000000
C     1.422000000    -3.058000000     3.157000000
C     1.292000000    -4.085000000     2.242000000
H     0.317000000    -4.202000000     1.776000000
C     2.713000000    -2.798000000     3.694000000
H     2.907000000    -2.064000000     4.472000000
O    -0.961000000    -3.069000000     3.655000000
H     0.074000000    -1.523000000     2.768000000
C    -1.356000000     0.238000000     4.761000000
C    -2.473000000    -0.810000000     4.922000000
H    -3.361000000    -0.356000000     5.368000000
H    -2.219000000    -1.629000000     5.597000000
C    -2.840000000    -1.543000000     3.654000000
C    -3.972000000    -1.039000000     2.917000000
H    -4.401000000    -0.097000000     3.249000000
C    -2.191000000    -2.698000000     3.221000000
C    -2.638000000    -3.299000000     2.010000000
H    -2.026000000    -4.121000000     1.647000000
C    -3.668000000    -2.733000000     1.258000000
O    -3.867000000    -3.299000000     0.006000000
C    -3.470000000    -2.572000000    -1.125000000
C    -2.808000000    -3.461000000    -2.131000000
C    -2.094000000    -4.587000000    -1.771000000
H    -2.140000000    -4.904000000    -0.732000000
C    -2.800000000    -3.040000000    -3.464000000
H    -3.284000000    -2.135000000    -3.822000000
O    -4.501000000    -1.731000000    -1.702000000
H    -2.658000000    -1.879000000    -0.861000000
C    -4.355000000    -1.633000000     1.730000000
C    -5.508000000    -0.994000000     0.943000000
H    -6.192000000    -0.599000000     1.697000000
H    -6.129000000    -1.784000000     0.517000000
C    -4.996000000    -0.013000000    -0.104000000
C    -4.436000000    -0.441000000    -1.270000000
C    -3.954000000     0.508000000    -2.183000000
H    -3.696000000     0.190000000    -3.190000000
C    -3.822000000     1.837000000    -1.841000000
O    -3.208000000     2.641000000    -2.679000000
C    -1.813000000     3.002000000    -2.357000000
H    -1.442000000     2.231000000    -1.666000000
C    -0.906000000     3.100000000    -3.585000000
C     0.156000000     4.045000000    -3.726000000
H     0.314000000     4.731000000    -2.899000000
C    -1.032000000     2.127000000    -4.551000000
H    -1.799000000     1.378000000    -4.373000000
C    -0.192000000     2.000000000    -5.648000000
O    -0.343000000     0.987000000    -6.549000000
C     0.903000000     2.906000000    -5.723000000
H     1.642000000     2.745000000    -6.503000000
C     1.079000000     3.943000000    -4.766000000
O     2.184000000     4.718000000    -4.833000000
C     2.849000000     5.193000000    -3.744000000
C     3.643000000     4.379000000    -2.947000000
H     3.616000000     3.313000000    -3.160000000
C     2.792000000     6.592000000    -3.497000000
H     2.238000000     7.229000000    -4.181000000
C     3.630000000     7.082000000    -2.449000000
H     3.657000000     8.159000000    -2.305000000
C     4.396000000     6.320000000    -1.629000000
H     4.959000000     6.797000000    -0.831000000
C     4.420000000     4.947000000    -1.929000000
O     5.273000000     4.153000000    -1.186000000
C     4.912000000     3.516000000    -0.045000000
C     5.805000000     2.626000000     0.439000000
H     6.806000000     2.534000000     0.025000000
C     5.486000000     1.792000000     1.486000000
O     6.351000000     0.836000000     1.938000000
C     6.230000000    -0.019000000     3.004000000
C     5.544000000    -1.271000000     2.920000000
H     5.148000000    -1.527000000     1.940000000
C     6.766000000     0.284000000     4.235000000
H     7.319000000     1.220000000     4.231000000
C     6.757000000    -0.542000000     5.320000000
H     7.316000000    -0.259000000     6.208000000
C     6.123000000    -1.781000000     5.256000000
H     6.204000000    -2.521000000     6.049000000
C     5.593000000    -2.151000000     4.040000000
O     5.079000000    -3.427000000     3.849000000
C     3.823000000    -3.589000000     3.247000000
C     3.651000000    -4.637000000     2.343000000
H     4.473000000    -5.250000000     1.982000000
C     2.396000000    -4.846000000     1.822000000
O     2.380000000    -5.916000000     0.983000000
C     1.200000000    -6.494000000     0.486000000
C     0.758000000    -6.211000000    -0.749000000
H     1.373000000    -5.531000000    -1.333000000
C     0.551000000    -7.390000000     1.341000000
H     0.913000000    -7.666000000     2.328000000
C    -0.604000000    -8.025000000     0.901000000
H    -1.083000000    -8.759000000     1.545000000
C    -0.997000000    -7.908000000    -0.422000000
H    -1.881000000    -8.406000000    -0.811000000
C    -0.350000000    -6.963000000    -1.242000000
O    -0.844000000    -6.600000000    -2.525000000
C    -1.382000000    -5.326000000    -2.723000000
C    -1.411000000    -4.884000000    -4.064000000
H    -0.809000000    -5.429000000    -4.786000000
C    -2.132000000    -3.760000000    -4.428000000
O    -2.306000000    -3.431000000    -5.763000000
C    -2.474000000    -2.105000000    -6.186000000
C    -3.744000000    -1.644000000    -6.655000000
H    -4.595000000    -2.321000000    -6.667000000
C    -3.883000000    -0.315000000    -7.022000000
H    -4.862000000     0.100000000    -7.249000000
C    -2.779000000     0.614000000    -6.992000000
H    -2.995000000     1.649000000    -7.243000000
C    -1.523000000     0.164000000    -6.590000000
C    -1.453000000    -1.146000000    -6.136000000
H    -0.459000000    -1.498000000    -5.871000000
C     0.822000000     0.210000000    -1.944000000
H     1.149000000     1.089000000    -2.493000000
C     0.162000000     0.311000000    -0.721000000
H     0.134000000     1.292000000    -0.255000000
C    -0.365000000    -0.766000000    -0.079000000
H    -0.876000000    -0.506000000     0.937000000
C    -0.128000000    -2.000000000    -0.589000000
H    -0.283000000    -2.792000000     0.139000000
C     0.535000000    -2.165000000    -1.844000000
H     0.637000000    -3.180000000    -2.220000000
C     1.018000000    -1.023000000    -2.493000000
C     1.826000000    -1.201000000    -3.723000000
O     2.391000000    -2.244000000    -3.925000000
O     2.114000000    -0.262000000    -4.441000000
O     3.102000000    -0.265000000    -6.977000000
H     2.498000000    -0.124000000    -6.248000000
H     3.790000000    -0.823000000    -6.614000000
O     3.845000000     2.072000000    -8.176000000
H     3.377000000     1.342000000    -7.770000000
H     4.592000000     1.664000000    -8.615000000
O     2.139000000    -4.814000000    -4.002000000
H     2.225000000    -3.863000000    -4.066000000
H     1.295000000    -5.006000000    -4.410000000
O     8.034000000    -2.690000000    -3.766000000
H     7.692000000    -3.508000000    -4.127000000
H     8.568000000    -2.962000000    -3.020000000
O     5.921000000    -4.539000000    -7.796000000
H     5.137000000    -4.021000000    -7.981000000
H     6.615000000    -4.111000000    -8.298000000
O     6.643000000     2.828000000    -4.681000000
H     6.243000000     3.683000000    -4.840000000
H     5.963000000     2.326000000    -4.231000000
O     4.946000000    -2.832000000    -0.696000000
H     5.302000000    -2.690000000    -1.573000000
H     4.628000000    -1.971000000    -0.424000000
O     1.687000000    -2.812000000    -6.648000000
H     1.948000000    -3.719000000    -6.486000000
H     1.815000000    -2.373000000    -5.807000000
O     1.668000000    -5.832000000    -7.376000000
H     0.838000000    -5.722000000    -7.839000000
H     1.647000000    -6.735000000    -7.058000000
O     5.469000000    -1.782000000    -6.342000000
H     5.227000000    -2.707000000    -6.387000000
H     6.417000000    -1.777000000    -6.475000000
O     4.468000000     1.041000000    -4.185000000
H     3.662000000     0.525000000    -4.197000000
H     4.509000000     1.441000000    -5.053000000
O     4.936000000    -2.188000000    -3.413000000
H     5.368000000    -2.126000000    -4.265000000
H     4.004000000    -2.094000000    -3.608000000
O     3.832000000    -2.344000000    -8.916000000
H     3.786000000    -1.435000000    -8.618000000
H     3.028000000    -2.745000000    -8.587000000
O     3.472000000    -0.679000000     0.113000000
H     3.126000000     0.211000000     0.052000000
H     2.695000000    -1.233000000     0.187000000
O     0.648000000    -2.711000000    -9.000000000
H    -0.267000000    -2.989000000    -9.034000000
H     0.914000000    -2.870000000    -8.094000000
O     6.952000000    -0.626000000    -2.350000000
H     6.011000000    -0.456000000    -2.394000000
H     7.083000000    -1.392000000    -2.908000000
O     5.716000000    -5.758000000    -1.283000000
H     5.444000000    -4.960000000    -0.832000000
H     5.329000000    -5.685000000    -2.155000000
O     1.234000000    -0.080000000    -8.910000000
H     1.794000000    -0.234000000    -8.149000000
H     0.763000000    -0.904000000    -9.032000000
O     3.945000000    -6.840000000    -3.177000000
H     3.499000000    -6.092000000    -3.573000000
H     3.321000000    -7.561000000    -3.256000000
