215
-1459.23945
C     4.509000000    -0.445000000    -2.655000000
H     4.380000000    -1.517000000    -2.530000000
C     4.612000000     0.353000000    -1.457000000
C     4.873000000     1.699000000    -1.634000000
H     4.831000000     2.351000000    -0.766000000
C     4.263000000    -0.167000000    -0.052000000
O     4.686000000    -1.563000000     0.135000000
H     3.165000000    -0.168000000     0.014000000
O     4.813000000     0.601000000     1.053000000
C     3.965000000     0.836000000     2.132000000
C     3.269000000     1.988000000     2.175000000
H     3.388000000     2.687000000     1.351000000
C     2.347000000     2.177000000     3.239000000
O     1.565000000     3.343000000     3.158000000
C     2.134000000     1.191000000     4.299000000
C     1.049000000     1.389000000     5.319000000
H     1.240000000     0.798000000     6.217000000
C    -0.264000000     1.083000000     4.754000000
C    -0.768000000    -0.225000000     4.921000000
H    -0.129000000    -1.019000000     5.299000000
H     1.146000000     2.423000000     5.655000000
C     2.882000000     0.005000000     4.156000000
H     2.686000000    -0.832000000     4.822000000
C     3.784000000    -0.196000000     3.052000000
C     4.458000000    -1.561000000     2.916000000
H     4.415000000    -1.990000000     3.920000000
H     5.492000000    -1.425000000     2.595000000
C     3.615000000    -2.434000000     2.030000000
C     2.635000000    -3.260000000     2.575000000
H     2.518000000    -3.298000000     3.655000000
C     3.812000000    -2.402000000     0.664000000
C     3.111000000    -3.284000000    -0.152000000
H     3.126000000    -3.327000000    -1.238000000
C     2.128000000    -4.083000000     0.297000000
O     1.302000000    -4.845000000    -0.559000000
C    -0.001000000    -4.316000000    -0.845000000
C    -0.286000000    -4.339000000    -2.321000000
C    -1.602000000    -4.326000000    -2.749000000
H    -2.430000000    -4.351000000    -2.045000000
C     0.715000000    -4.242000000    -3.263000000
H     1.699000000    -3.996000000    -2.873000000
O    -0.996000000    -4.986000000    -0.022000000
H     0.130000000    -3.249000000    -0.612000000
C     1.944000000    -4.121000000     1.704000000
C     0.815000000    -5.052000000     2.270000000
H     1.072000000    -5.256000000     3.312000000
H     0.858000000    -6.032000000     1.790000000
C    -0.459000000    -4.352000000     2.231000000
C    -0.882000000    -3.576000000     3.366000000
H    -0.193000000    -3.614000000     4.207000000
C    -1.303000000    -4.324000000     1.064000000
C    -2.407000000    -3.468000000     1.013000000
H    -2.985000000    -3.544000000     0.096000000
C    -2.793000000    -2.680000000     2.107000000
O    -3.884000000    -1.870000000     1.887000000
C    -3.731000000    -0.416000000     1.715000000
C    -4.742000000     0.201000000     0.770000000
C    -5.199000000    -0.561000000    -0.288000000
H    -4.995000000    -1.623000000    -0.398000000
C    -5.112000000     1.533000000     0.851000000
H    -4.820000000     2.162000000     1.687000000
O    -3.927000000     0.173000000     3.061000000
H    -2.748000000    -0.158000000     1.295000000
C    -2.053000000    -2.815000000     3.304000000
C    -2.425000000    -2.040000000     4.535000000
H    -1.955000000    -2.543000000     5.382000000
H    -3.513000000    -2.010000000     4.627000000
C    -2.005000000    -0.583000000     4.419000000
C    -2.781000000     0.438000000     3.803000000
C    -2.323000000     1.707000000     3.762000000
H    -2.910000000     2.407000000     3.172000000
C    -1.022000000     2.027000000     4.095000000
O    -0.576000000     3.287000000     3.754000000
C     0.219000000     3.309000000     2.609000000
H     0.014000000     2.443000000     1.964000000
C    -0.017000000     4.478000000     1.610000000
C     0.926000000     4.823000000     0.651000000
H     1.917000000     4.379000000     0.683000000
C    -1.307000000     5.035000000     1.474000000
H    -2.072000000     4.712000000     2.176000000
C    -1.532000000     6.060000000     0.517000000
O    -2.830000000     6.551000000     0.286000000
C    -0.540000000     6.381000000    -0.422000000
H    -0.735000000     7.080000000    -1.231000000
C     0.675000000     5.789000000    -0.323000000
O     1.632000000     6.020000000    -1.347000000
C     2.958000000     5.621000000    -1.289000000
C     3.486000000     4.714000000    -2.226000000
H     2.914000000     4.202000000    -2.995000000
C     3.768000000     6.273000000    -0.324000000
H     3.281000000     6.990000000     0.332000000
C     5.095000000     6.034000000    -0.332000000
H     5.732000000     6.456000000     0.441000000
C     5.671000000     5.134000000    -1.231000000
H     6.692000000     4.798000000    -1.066000000
C     4.891000000     4.536000000    -2.163000000
O     5.404000000     3.593000000    -3.081000000
C     5.127000000     2.223000000    -2.960000000
C     5.133000000     1.395000000    -4.099000000
H     5.536000000     1.771000000    -5.036000000
C     4.693000000     0.067000000    -3.947000000
O     4.810000000    -0.712000000    -5.003000000
C     4.480000000    -2.038000000    -5.070000000
C     3.124000000    -2.497000000    -5.156000000
H     2.361000000    -1.724000000    -5.189000000
C     5.443000000    -3.065000000    -5.117000000
H     6.460000000    -2.712000000    -4.962000000
C     5.140000000    -4.444000000    -5.208000000
H     5.904000000    -5.218000000    -5.210000000
C     3.850000000    -4.879000000    -5.273000000
H     3.681000000    -5.951000000    -5.340000000
C     2.809000000    -3.888000000    -5.279000000
O     1.441000000    -4.200000000    -5.516000000
C     0.440000000    -4.331000000    -4.599000000
C    -0.862000000    -4.252000000    -5.004000000
H    -1.083000000    -4.269000000    -6.068000000
C    -1.895000000    -4.271000000    -4.127000000
O    -3.252000000    -4.299000000    -4.535000000
C    -4.348000000    -3.817000000    -3.800000000
C    -4.598000000    -2.434000000    -3.515000000
H    -3.971000000    -1.660000000    -3.951000000
C    -5.218000000    -4.722000000    -3.198000000
H    -4.958000000    -5.768000000    -3.335000000
C    -6.301000000    -4.248000000    -2.458000000
H    -7.070000000    -4.948000000    -2.139000000
C    -6.538000000    -2.910000000    -2.221000000
H    -7.435000000    -2.590000000    -1.697000000
C    -5.630000000    -1.992000000    -2.735000000
O    -5.866000000    -0.690000000    -2.581000000
C    -5.820000000    -0.012000000    -1.389000000
C    -6.030000000     1.356000000    -1.324000000
H    -6.577000000     1.789000000    -2.157000000
C    -5.795000000     2.064000000    -0.184000000
O    -6.311000000     3.355000000    -0.151000000
C    -5.725000000     4.343000000     0.656000000
C    -6.189000000     4.692000000     1.861000000
H    -7.096000000     4.260000000     2.278000000
C    -5.695000000     5.881000000     2.495000000
H    -6.187000000     6.136000000     3.430000000
C    -4.573000000     6.535000000     1.997000000
H    -4.129000000     7.381000000     2.515000000
C    -4.002000000     6.061000000     0.837000000
C    -4.580000000     4.942000000     0.194000000
H    -4.114000000     4.507000000    -0.686000000
C    -0.519000000    -0.488000000    -2.324000000
H    -1.092000000    -1.073000000    -3.038000000
C    -0.812000000    -0.822000000    -1.030000000
H    -1.536000000    -1.589000000    -0.766000000
C    -0.073000000    -0.165000000    -0.013000000
H    -0.358000000    -0.373000000     0.975000000
C     0.867000000     0.763000000    -0.353000000
H     1.389000000     1.188000000     0.500000000
C     1.017000000     1.209000000    -1.658000000
H     1.619000000     2.093000000    -1.853000000
C     0.452000000     0.422000000    -2.659000000
C     0.773000000     0.585000000    -4.136000000
O     1.402000000     1.594000000    -4.412000000
O     0.203000000    -0.083000000    -5.040000000
O     3.963000000     4.099000000    -6.265000000
H     3.077000000     4.148000000    -5.904000000
H     4.045000000     3.198000000    -6.577000000
O     0.570000000     3.393000000    -8.328000000
H     0.994000000     3.947000000    -7.672000000
H     1.294000000     2.965000000    -8.784000000
O     1.934000000     0.911000000    -7.195000000
H     2.793000000     0.497000000    -7.108000000
H     1.618000000     0.997000000    -6.296000000
O     0.304000000    -1.614000000    -7.355000000
H     1.226000000    -1.772000000    -7.562000000
H     0.320000000    -0.889000000    -6.731000000
O    -2.398000000    -2.520000000    -7.181000000
H    -1.484000000    -2.236000000    -7.178000000
H    -2.876000000    -1.786000000    -7.567000000
O    -2.967000000     1.969000000    -2.667000000
H    -2.819000000     1.361000000    -3.391000000
H    -2.917000000     1.424000000    -1.882000000
O    -3.001000000     4.587000000    -3.669000000
H    -2.843000000     3.709000000    -3.321000000
H    -3.839000000     4.849000000    -3.286000000
O     1.418000000     3.996000000    -5.421000000
H     1.060000000     4.501000000    -4.691000000
H     1.414000000     3.090000000    -5.111000000
O    -0.976000000     1.685000000    -6.910000000
H    -0.143000000     1.962000000    -7.292000000
H    -0.729000000     1.154000000    -6.153000000
O     6.026000000    -0.946000000    -7.574000000
H     6.952000000    -1.157000000    -7.453000000
H     5.614000000    -1.192000000    -6.746000000
O     0.086000000    -0.501000000    -9.994000000
H     0.065000000    -1.452000000    -9.890000000
H     0.333000000    -0.172000000    -9.129000000
O    -5.377000000     1.419000000    -6.058000000
H    -5.587000000     1.794000000    -6.914000000
H    -4.568000000     1.860000000    -5.796000000
O    -3.873000000    -0.571000000    -8.141000000
H    -4.811000000    -0.454000000    -7.992000000
H    -3.508000000     0.312000000    -8.082000000
O     2.530000000    -2.376000000    -8.907000000
H     2.653000000    -2.717000000    -9.793000000
H     2.983000000    -1.533000000    -8.910000000
O    -2.398000000     0.163000000    -4.788000000
H    -2.888000000     0.106000000    -5.608000000
H    -1.489000000    -0.003000000    -5.039000000
O     3.363000000     0.359000000    -9.666000000
H     3.952000000     1.104000000    -9.549000000
H     2.485000000     0.732000000    -9.581000000
O     5.130000000     2.059000000    -8.152000000
H     5.353000000     1.169000000    -8.425000000
H     5.808000000     2.607000000    -8.545000000
O    -0.303000000     5.801000000    -3.916000000
H    -1.191000000     5.511000000    -4.128000000
H    -0.243000000     5.712000000    -2.965000000
O    -3.108000000     2.941000000    -6.238000000
H    -2.315000000     2.774000000    -6.748000000
H    -2.897000000     3.713000000    -5.713000000
