215
-1461.89200
C     4.478000000     2.744000000     2.137000000
H     4.257000000     2.248000000     3.079000000
C     3.428000000     3.523000000     1.605000000
C     3.724000000     4.286000000     0.472000000
H     2.957000000     4.900000000     0.005000000
C     2.020000000     3.549000000     2.134000000
O     1.937000000     3.343000000     3.598000000
H     1.480000000     2.720000000     1.653000000
O     1.368000000     4.766000000     1.737000000
C     0.127000000     4.523000000     1.258000000
C    -0.122000000     4.641000000    -0.080000000
H     0.756000000     4.773000000    -0.707000000
C    -1.354000000     4.303000000    -0.607000000
O    -1.546000000     4.298000000    -1.999000000
C    -2.450000000     4.153000000     0.228000000
C    -3.803000000     3.863000000    -0.266000000
H    -4.605000000     4.150000000     0.418000000
C    -4.077000000     2.425000000    -0.603000000
C    -4.709000000     1.546000000     0.365000000
H    -4.896000000     1.900000000     1.376000000
H    -4.117000000     4.446000000    -1.134000000
C    -2.195000000     4.109000000     1.597000000
H    -2.975000000     3.906000000     2.325000000
C    -0.933000000     4.319000000     2.137000000
C    -0.755000000     4.195000000     3.626000000
H    -1.738000000     4.435000000     4.036000000
H    -0.068000000     4.943000000     4.029000000
C    -0.391000000     2.824000000     4.079000000
C    -1.320000000     1.805000000     4.322000000
H    -2.395000000     1.946000000     4.244000000
C     0.965000000     2.494000000     4.086000000
C     1.376000000     1.174000000     4.357000000
H     2.423000000     0.968000000     4.149000000
C     0.366000000     0.195000000     4.557000000
O     0.739000000    -1.105000000     4.584000000
C     0.257000000    -2.035000000     3.647000000
C     1.346000000    -2.943000000     3.133000000
C     1.214000000    -4.315000000     2.998000000
H     0.244000000    -4.707000000     3.292000000
C     2.522000000    -2.327000000     2.700000000
H     2.647000000    -1.248000000     2.747000000
O    -0.914000000    -2.742000000     4.128000000
H     0.044000000    -1.385000000     2.786000000
C    -0.950000000     0.481000000     4.614000000
C    -2.128000000    -0.400000000     5.108000000
H    -2.884000000     0.309000000     5.452000000
H    -1.879000000    -0.937000000     6.026000000
C    -2.780000000    -1.236000000     3.991000000
C    -3.844000000    -0.737000000     3.262000000
H    -4.339000000     0.083000000     3.776000000
C    -2.088000000    -2.303000000     3.554000000
C    -2.472000000    -2.975000000     2.400000000
H    -1.948000000    -3.815000000     1.952000000
C    -3.538000000    -2.441000000     1.631000000
O    -3.760000000    -3.001000000     0.364000000
C    -3.150000000    -2.367000000    -0.756000000
C    -2.483000000    -3.404000000    -1.616000000
C    -2.091000000    -4.658000000    -1.066000000
H    -2.273000000    -4.893000000    -0.020000000
C    -2.274000000    -3.176000000    -2.952000000
H    -2.399000000    -2.146000000    -3.275000000
O    -4.253000000    -1.660000000    -1.479000000
H    -2.366000000    -1.650000000    -0.469000000
C    -4.278000000    -1.338000000     2.102000000
C    -5.328000000    -0.694000000     1.256000000
H    -5.931000000    -0.010000000     1.857000000
H    -6.080000000    -1.393000000     0.885000000
C    -4.831000000     0.180000000     0.073000000
C    -4.398000000    -0.316000000    -1.158000000
C    -3.987000000     0.561000000    -2.126000000
H    -3.757000000     0.145000000    -3.103000000
C    -3.815000000     1.920000000    -1.871000000
O    -3.140000000     2.591000000    -2.846000000
C    -1.775000000     2.929000000    -2.556000000
H    -1.345000000     2.253000000    -1.803000000
C    -1.005000000     2.701000000    -3.845000000
C     0.182000000     3.464000000    -4.029000000
H     0.499000000     4.217000000    -3.312000000
C    -1.292000000     1.678000000    -4.691000000
H    -2.190000000     1.084000000    -4.539000000
C    -0.417000000     1.337000000    -5.693000000
O    -0.760000000     0.476000000    -6.676000000
C     0.780000000     2.007000000    -5.851000000
H     1.459000000     1.738000000    -6.656000000
C     1.113000000     3.063000000    -5.041000000
O     2.337000000     3.618000000    -5.137000000
C     2.819000000     4.512000000    -4.204000000
C     3.692000000     4.084000000    -3.130000000
H     3.842000000     3.014000000    -3.018000000
C     2.366000000     5.796000000    -4.232000000
H     1.528000000     6.070000000    -4.868000000
C     2.857000000     6.755000000    -3.341000000
H     2.499000000     7.776000000    -3.440000000
C     3.871000000     6.337000000    -2.411000000
H     4.252000000     7.034000000    -1.669000000
C     4.201000000     5.006000000    -2.263000000
O     5.178000000     4.740000000    -1.327000000
C     4.939000000     4.090000000    -0.195000000
C     5.928000000     3.255000000     0.295000000
H     6.841000000     3.189000000    -0.291000000
C     5.724000000     2.663000000     1.498000000
O     6.749000000     1.842000000     1.973000000
C     6.509000000     0.605000000     2.419000000
C     5.587000000    -0.288000000     1.811000000
H     5.207000000    -0.022000000     0.828000000
C     7.023000000     0.230000000     3.697000000
H     7.664000000     0.962000000     4.182000000
C     6.639000000    -0.966000000     4.283000000
H     7.017000000    -1.183000000     5.279000000
C     5.823000000    -1.855000000     3.543000000
H     5.465000000    -2.761000000     4.025000000
C     5.294000000    -1.553000000     2.339000000
O     4.621000000    -2.516000000     1.587000000
C     3.493000000    -3.127000000     2.077000000
C     3.261000000    -4.472000000     1.838000000
H     3.986000000    -5.087000000     1.312000000
C     2.133000000    -5.091000000     2.312000000
O     1.996000000    -6.475000000     2.095000000
C     0.824000000    -6.934000000     1.706000000
C     0.426000000    -6.649000000     0.384000000
H     0.979000000    -5.960000000    -0.249000000
C     0.095000000    -7.916000000     2.409000000
H     0.480000000    -8.302000000     3.350000000
C    -1.190000000    -8.412000000     1.968000000
H    -1.689000000    -9.203000000     2.522000000
C    -1.591000000    -8.022000000     0.666000000
H    -2.496000000    -8.435000000     0.228000000
C    -0.787000000    -7.144000000    -0.065000000
O    -1.061000000    -6.821000000    -1.376000000
C    -1.592000000    -5.652000000    -1.885000000
C    -1.499000000    -5.429000000    -3.255000000
H    -1.148000000    -6.162000000    -3.977000000
C    -1.852000000    -4.221000000    -3.847000000
O    -1.828000000    -4.054000000    -5.219000000
C    -2.218000000    -2.812000000    -5.737000000
C    -3.567000000    -2.696000000    -6.245000000
H    -4.412000000    -3.375000000    -6.168000000
C    -3.831000000    -1.536000000    -6.884000000
H    -4.810000000    -1.539000000    -7.357000000
C    -2.926000000    -0.498000000    -7.016000000
H    -3.208000000     0.383000000    -7.587000000
C    -1.633000000    -0.556000000    -6.524000000
C    -1.364000000    -1.690000000    -5.752000000
H    -0.501000000    -1.822000000    -5.105000000
C     1.406000000     1.014000000    -0.681000000
H     1.900000000     1.918000000    -1.029000000
C     0.309000000     1.113000000     0.189000000
H    -0.098000000     2.077000000     0.482000000
C    -0.257000000    -0.090000000     0.700000000
H    -1.160000000    -0.059000000     1.358000000
C     0.363000000    -1.266000000     0.425000000
H    -0.073000000    -2.211000000     0.739000000
C     1.487000000    -1.410000000    -0.398000000
H     2.020000000    -2.349000000    -0.522000000
C     2.035000000    -0.234000000    -0.906000000
C     3.345000000    -0.242000000    -1.774000000
O     3.871000000    -1.276000000    -2.151000000
O     4.053000000     0.764000000    -1.921000000
O    10.499000000    -2.470000000    -3.231000000
H     9.609000000    -2.129000000    -3.314000000
H    11.024000000    -1.711000000    -2.978000000
O     3.014000000    -0.924000000    -7.019000000
H     2.916000000    -0.447000000    -6.195000000
H     3.656000000    -1.607000000    -6.825000000
O     6.821000000     3.174000000    -3.464000000
H     6.507000000     2.500000000    -2.862000000
H     7.582000000     2.779000000    -3.889000000
O     6.641000000     1.000000000    -1.556000000
H     6.901000000     0.082000000    -1.479000000
H     5.706000000     0.968000000    -1.760000000
O     5.423000000    -1.958000000    -6.846000000
H     5.488000000    -1.933000000    -7.800000000
H     5.643000000    -2.860000000    -6.614000000
O     8.311000000    -1.050000000    -5.205000000
H     7.368000000    -1.213000000    -5.191000000
H     8.390000000    -0.096000000    -5.199000000
O     1.498000000     0.131000000    -8.755000000
H     2.169000000    -0.391000000    -8.315000000
H     1.024000000     0.562000000    -8.044000000
O     2.012000000    -6.978000000    -2.565000000
H     2.746000000    -7.443000000    -2.966000000
H     2.269000000    -6.057000000    -2.592000000
O     9.442000000     1.457000000    -1.689000000
H     8.522000000     1.350000000    -1.449000000
H     9.601000000     2.399000000    -1.616000000
O     5.240000000     2.928000000    -5.944000000
H     4.803000000     3.653000000    -6.390000000
H     5.767000000     3.349000000    -5.264000000
O     6.825000000    -4.235000000    -3.265000000
H     6.572000000    -3.707000000    -4.022000000
H     6.419000000    -3.793000000    -2.519000000
O     2.889000000    -4.217000000    -2.591000000
H     2.834000000    -3.315000000    -2.278000000
H     3.817000000    -4.440000000    -2.518000000
O     5.127000000     0.980000000    -8.040000000
H     5.494000000     1.563000000    -7.376000000
H     4.490000000     0.447000000    -7.565000000
O     5.699000000    -4.489000000    -6.140000000
H     5.320000000    -5.195000000    -5.616000000
H     5.767000000    -4.855000000    -7.022000000
O     4.156000000     0.660000000    -4.870000000
H     4.114000000     0.804000000    -3.925000000
H     4.598000000     1.437000000    -5.211000000
O     5.761000000    -1.554000000    -4.253000000
H     5.395000000    -1.534000000    -5.137000000
H     5.000000000    -1.481000000    -3.677000000
O     9.324000000    -1.121000000     0.025000000
H    10.106000000    -0.718000000    -0.353000000
H     8.638000000    -0.971000000    -0.625000000
O     5.365000000    -3.025000000    -1.193000000
H     5.077000000    -2.972000000    -0.282000000
H     4.763000000    -2.453000000    -1.668000000
O     7.724000000    -1.283000000    -2.248000000
H     7.156000000    -2.013000000    -2.004000000
H     7.525000000    -1.123000000    -3.171000000
