215
-1463.40748
C     3.843000000     2.833000000     0.926000000
H     3.663000000     2.009000000     1.612000000
C     2.901000000     3.871000000     0.887000000
C     3.053000000     4.957000000     0.056000000
H     2.355000000     5.787000000    -0.017000000
C     1.613000000     3.709000000     1.647000000
O     1.883000000     3.464000000     3.058000000
H     1.108000000     2.808000000     1.269000000
O     0.793000000     4.960000000     1.531000000
C    -0.482000000     4.686000000     1.113000000
C    -0.762000000     4.594000000    -0.234000000
H    -0.054000000     4.786000000    -1.036000000
C    -2.046000000     4.243000000    -0.663000000
O    -2.186000000     3.969000000    -2.047000000
C    -3.015000000     3.847000000     0.275000000
C    -4.389000000     3.391000000    -0.128000000
H    -5.113000000     3.666000000     0.643000000
C    -4.453000000     1.866000000    -0.357000000
C    -4.853000000     1.095000000     0.747000000
H    -5.192000000     1.567000000     1.666000000
H    -4.662000000     4.003000000    -0.990000000
C    -2.717000000     3.938000000     1.629000000
H    -3.299000000     3.677000000     2.509000000
C    -1.446000000     4.344000000     2.017000000
C    -1.049000000     4.243000000     3.479000000
H    -1.955000000     4.421000000     4.061000000
H    -0.370000000     5.068000000     3.702000000
C    -0.405000000     2.899000000     3.849000000
C    -1.239000000     1.938000000     4.325000000
H    -2.254000000     2.300000000     4.469000000
C     0.983000000     2.652000000     3.717000000
C     1.458000000     1.371000000     4.009000000
H     2.507000000     1.092000000     3.946000000
C     0.632000000     0.460000000     4.578000000
O     1.267000000    -0.744000000     4.769000000
C     0.833000000    -1.750000000     3.829000000
C     1.827000000    -2.716000000     3.377000000
C     1.570000000    -4.111000000     3.384000000
H     0.750000000    -4.584000000     3.918000000
C     2.817000000    -2.129000000     2.606000000
H     2.687000000    -1.058000000     2.474000000
O    -0.260000000    -2.491000000     4.393000000
H     0.486000000    -1.158000000     2.969000000
C    -0.754000000     0.702000000     4.708000000
C    -1.701000000    -0.302000000     5.329000000
H    -2.572000000     0.209000000     5.746000000
H    -1.167000000    -1.005000000     5.973000000
C    -2.251000000    -1.256000000     4.359000000
C    -3.478000000    -0.960000000     3.691000000
H    -4.033000000    -0.064000000     3.955000000
C    -1.470000000    -2.322000000     3.902000000
C    -1.895000000    -3.172000000     2.896000000
H    -1.303000000    -4.007000000     2.530000000
C    -3.119000000    -2.879000000     2.246000000
O    -3.401000000    -3.584000000     1.151000000
C    -3.058000000    -2.855000000    -0.068000000
C    -2.308000000    -3.786000000    -1.036000000
C    -2.047000000    -5.118000000    -0.587000000
H    -2.404000000    -5.576000000     0.331000000
C    -1.862000000    -3.300000000    -2.275000000
H    -2.075000000    -2.263000000    -2.523000000
O    -4.223000000    -2.280000000    -0.657000000
H    -2.373000000    -2.030000000     0.176000000
C    -3.862000000    -1.693000000     2.556000000
C    -5.070000000    -1.241000000     1.794000000
H    -5.835000000    -0.850000000     2.469000000
H    -5.584000000    -2.116000000     1.390000000
C    -4.732000000    -0.318000000     0.648000000
C    -4.338000000    -0.890000000    -0.557000000
C    -3.995000000    -0.068000000    -1.667000000
H    -3.516000000    -0.528000000    -2.528000000
C    -3.945000000     1.297000000    -1.505000000
O    -3.348000000     2.086000000    -2.529000000
C    -1.989000000     2.587000000    -2.447000000
H    -1.537000000     1.995000000    -1.637000000
C    -1.186000000     2.454000000    -3.666000000
C    -0.092000000     3.332000000    -3.888000000
H     0.210000000     4.082000000    -3.161000000
C    -1.425000000     1.407000000    -4.597000000
H    -2.352000000     0.860000000    -4.442000000
C    -0.618000000     1.267000000    -5.725000000
O    -1.018000000     0.409000000    -6.713000000
C     0.398000000     2.168000000    -5.994000000
H     0.842000000     2.203000000    -6.986000000
C     0.770000000     3.109000000    -4.999000000
O     1.839000000     3.976000000    -5.252000000
C     2.135000000     5.099000000    -4.531000000
C     3.176000000     5.020000000    -3.671000000
H     3.954000000     4.262000000    -3.722000000
C     1.216000000     6.221000000    -4.564000000
H     0.418000000     6.164000000    -5.300000000
C     1.374000000     7.222000000    -3.571000000
H     0.653000000     8.029000000    -3.466000000
C     2.416000000     7.112000000    -2.637000000
H     2.617000000     7.743000000    -1.776000000
C     3.373000000     6.093000000    -2.725000000
O     4.283000000     5.979000000    -1.741000000
C     4.129000000     4.999000000    -0.841000000
C     5.125000000     4.032000000    -0.718000000
H     5.994000000     4.013000000    -1.370000000
C     5.084000000     3.004000000     0.210000000
O     6.116000000     2.133000000     0.344000000
C     6.023000000     1.008000000     1.102000000
C     5.380000000    -0.118000000     0.648000000
H     5.147000000    -0.218000000    -0.409000000
C     6.403000000     1.113000000     2.490000000
H     6.845000000     2.054000000     2.807000000
C     6.307000000     0.040000000     3.345000000
H     6.624000000     0.050000000     4.385000000
C     5.830000000    -1.191000000     2.859000000
H     5.843000000    -2.112000000     3.436000000
C     5.288000000    -1.227000000     1.526000000
O     4.649000000    -2.371000000     1.046000000
C     3.639000000    -2.926000000     1.793000000
C     3.482000000    -4.327000000     1.895000000
H     4.176000000    -4.968000000     1.357000000
C     2.480000000    -4.867000000     2.701000000
O     2.353000000    -6.225000000     2.778000000
C     1.248000000    -6.886000000     2.233000000
C     0.719000000    -6.582000000     0.945000000
H     1.103000000    -5.731000000     0.387000000
C     0.713000000    -7.929000000     2.948000000
H     1.131000000    -8.195000000     3.916000000
C    -0.329000000    -8.611000000     2.437000000
H    -0.845000000    -9.454000000     2.889000000
C    -0.887000000    -8.300000000     1.208000000
H    -1.671000000    -8.955000000     0.837000000
C    -0.330000000    -7.305000000     0.367000000
O    -0.771000000    -7.061000000    -0.913000000
C    -1.192000000    -5.833000000    -1.383000000
C    -0.615000000    -5.341000000    -2.550000000
H    -0.005000000    -6.032000000    -3.126000000
C    -1.045000000    -4.119000000    -3.062000000
O    -0.544000000    -3.754000000    -4.283000000
C    -1.149000000    -3.006000000    -5.254000000
C    -2.020000000    -3.666000000    -6.113000000
H    -2.288000000    -4.718000000    -6.052000000
C    -2.531000000    -2.931000000    -7.223000000
H    -3.173000000    -3.518000000    -7.875000000
C    -2.158000000    -1.593000000    -7.418000000
H    -2.610000000    -1.006000000    -8.213000000
C    -1.365000000    -0.964000000    -6.460000000
C    -0.800000000    -1.669000000    -5.437000000
H    -0.082000000    -1.160000000    -4.798000000
C     1.058000000     0.588000000    -1.254000000
H     1.437000000     1.510000000    -1.686000000
C     0.166000000     0.857000000    -0.267000000
H    -0.118000000     1.860000000     0.041000000
C    -0.313000000    -0.193000000     0.500000000
H    -1.105000000    -0.001000000     1.251000000
C     0.022000000    -1.501000000     0.216000000
H    -0.311000000    -2.271000000     0.906000000
C     0.950000000    -1.762000000    -0.804000000
H     1.365000000    -2.739000000    -1.037000000
C     1.442000000    -0.692000000    -1.565000000
C     2.414000000    -0.914000000    -2.718000000
O     2.883000000    -2.004000000    -2.985000000
O     2.828000000     0.089000000    -3.301000000
O     3.375000000     1.577000000    -5.447000000
H     3.319000000     1.028000000    -4.665000000
H     2.757000000     2.290000000    -5.284000000
O     5.711000000    -1.730000000    -3.064000000
H     5.691000000    -0.773000000    -3.058000000
H     4.789000000    -1.989000000    -3.076000000
O     6.800000000    -5.641000000    -0.813000000
H     7.245000000    -6.310000000    -1.334000000
H     5.908000000    -5.623000000    -1.160000000
O     2.978000000    -2.634000000    -5.792000000
H     2.972000000    -2.186000000    -4.946000000
H     3.885000000    -2.566000000    -6.092000000
O     7.099000000     0.502000000    -4.876000000
H     6.457000000     0.561000000    -4.169000000
H     7.758000000     1.161000000    -4.657000000
O     1.026000000    -3.893000000    -7.247000000
H     0.653000000    -3.022000000    -7.385000000
H     1.756000000    -3.748000000    -6.644000000
O     5.484000000     3.370000000    -5.417000000
H     4.751000000     2.753000000    -5.432000000
H     6.228000000     2.849000000    -5.116000000
O     7.675000000    -3.770000000    -4.407000000
H     6.727000000    -3.901000000    -4.384000000
H     7.808000000    -2.910000000    -4.008000000
O     8.196000000    -3.681000000     0.405000000
H     7.683000000    -4.400000000     0.036000000
H     7.990000000    -2.929000000    -0.151000000
O     2.107000000    -4.464000000    -3.820000000
H     1.186000000    -4.465000000    -4.082000000
H     2.378000000    -3.549000000    -3.900000000
O     5.049000000     1.149000000    -8.157000000
H     5.006000000     0.226000000    -8.405000000
H     4.445000000     1.227000000    -7.419000000
O     3.539000000    -6.771000000    -4.539000000
H     3.082000000    -5.974000000    -4.271000000
H     4.466000000    -6.571000000    -4.411000000
O     5.209000000     0.915000000    -2.616000000
H     4.331000000     0.666000000    -2.905000000
H     5.070000000     1.679000000    -2.056000000
O     5.566000000    -3.106000000    -6.705000000
H     6.186000000    -3.831000000    -6.621000000
H     5.781000000    -2.704000000    -7.546000000
O     1.602000000    -1.311000000    -8.980000000
H     2.085000000    -1.281000000    -9.805000000
H     2.281000000    -1.316000000    -8.305000000
O     3.818000000    -5.056000000    -1.251000000
H     3.163000000    -4.883000000    -1.927000000
H     4.129000000    -4.188000000    -0.992000000
O     7.997000000    -1.579000000    -1.300000000
H     7.118000000    -1.543000000    -1.678000000
H     8.580000000    -1.640000000    -2.056000000
O     3.852000000    -7.864000000    -0.561000000
H     3.387000000    -8.289000000    -1.281000000
H     3.771000000    -6.928000000    -0.743000000
O     8.302000000    -0.472000000    -7.097000000
H     7.506000000    -0.703000000    -7.576000000
H     7.990000000    -0.165000000    -6.246000000
