215
-1451.34645
C     4.315000000     2.715000000     1.306000000
H     4.137000000     2.070000000     2.163000000
C     3.198000000     3.388000000     0.787000000
C     3.277000000     4.122000000    -0.419000000
H     2.467000000     4.633000000    -0.933000000
C     1.854000000     3.384000000     1.530000000
O     1.920000000     3.252000000     2.963000000
H     1.317000000     2.501000000     1.153000000
O     1.066000000     4.580000000     1.339000000
C    -0.315000000     4.618000000     1.132000000
C    -0.789000000     4.725000000    -0.171000000
H    -0.126000000     4.901000000    -1.014000000
C    -2.109000000     4.371000000    -0.520000000
O    -2.484000000     4.304000000    -1.877000000
C    -2.952000000     3.955000000     0.471000000
C    -4.371000000     3.604000000     0.056000000
H    -4.932000000     3.814000000     0.969000000
C    -4.480000000     2.119000000    -0.321000000
C    -4.964000000     1.221000000     0.582000000
H    -5.354000000     1.588000000     1.528000000
H    -4.820000000     4.237000000    -0.713000000
C    -2.491000000     3.947000000     1.785000000
H    -3.165000000     3.581000000     2.556000000
C    -1.205000000     4.320000000     2.168000000
C    -0.729000000     4.151000000     3.588000000
H    -1.548000000     4.343000000     4.284000000
H     0.059000000     4.877000000     3.797000000
C    -0.288000000     2.784000000     3.852000000
C    -1.227000000     1.863000000     4.378000000
H    -2.241000000     2.132000000     4.661000000
C     0.968000000     2.363000000     3.521000000
C     1.373000000     1.084000000     3.815000000
H     2.400000000     0.763000000     3.665000000
C     0.458000000     0.172000000     4.411000000
O     0.934000000    -1.103000000     4.643000000
C     0.589000000    -2.143000000     3.676000000
C     1.687000000    -2.880000000     3.045000000
C     1.570000000    -4.290000000     2.877000000
H     0.716000000    -4.864000000     3.229000000
C     2.798000000    -2.229000000     2.595000000
H     2.827000000    -1.143000000     2.636000000
O    -0.514000000    -2.966000000     4.208000000
H     0.150000000    -1.659000000     2.792000000
C    -0.811000000     0.546000000     4.733000000
C    -1.788000000    -0.419000000     5.301000000
H    -2.671000000     0.017000000     5.774000000
H    -1.339000000    -1.057000000     6.064000000
C    -2.392000000    -1.375000000     4.228000000
C    -3.546000000    -0.930000000     3.525000000
H    -4.112000000    -0.078000000     3.893000000
C    -1.733000000    -2.545000000     3.802000000
C    -2.269000000    -3.195000000     2.702000000
H    -1.726000000    -4.003000000     2.219000000
C    -3.418000000    -2.788000000     2.028000000
O    -3.722000000    -3.389000000     0.854000000
C    -3.255000000    -2.775000000    -0.418000000
C    -2.571000000    -3.782000000    -1.315000000
C    -2.262000000    -5.052000000    -0.786000000
H    -2.498000000    -5.323000000     0.240000000
C    -2.173000000    -3.446000000    -2.603000000
H    -2.206000000    -2.397000000    -2.888000000
O    -4.330000000    -1.987000000    -1.015000000
H    -2.407000000    -2.093000000    -0.254000000
C    -4.048000000    -1.628000000     2.404000000
C    -5.251000000    -1.073000000     1.656000000
H    -5.953000000    -0.549000000     2.308000000
H    -5.778000000    -1.961000000     1.300000000
C    -4.922000000    -0.209000000     0.418000000
C    -4.436000000    -0.694000000    -0.779000000
C    -4.052000000     0.222000000    -1.752000000
H    -3.681000000    -0.209000000    -2.679000000
C    -4.065000000     1.558000000    -1.536000000
O    -3.601000000     2.316000000    -2.559000000
C    -2.329000000     3.004000000    -2.375000000
H    -1.836000000     2.462000000    -1.554000000
C    -1.482000000     2.938000000    -3.640000000
C    -0.631000000     3.979000000    -3.998000000
H    -0.698000000     4.931000000    -3.478000000
C    -1.364000000     1.757000000    -4.361000000
H    -1.902000000     0.898000000    -3.969000000
C    -0.467000000     1.639000000    -5.478000000
O    -0.290000000     0.370000000    -5.966000000
C     0.219000000     2.739000000    -5.873000000
H     0.857000000     2.673000000    -6.751000000
C     0.169000000     3.895000000    -5.137000000
O     1.066000000     4.928000000    -5.440000000
C     1.789000000     5.567000000    -4.512000000
C     2.881000000     4.943000000    -3.906000000
H     3.193000000     3.997000000    -4.343000000
C     1.542000000     6.873000000    -4.115000000
H     0.768000000     7.462000000    -4.601000000
C     2.276000000     7.495000000    -3.109000000
H     1.968000000     8.524000000    -2.943000000
C     3.324000000     6.879000000    -2.474000000
H     3.910000000     7.456000000    -1.762000000
C     3.682000000     5.579000000    -2.924000000
O     4.610000000     4.814000000    -2.382000000
C     4.469000000     4.152000000    -1.176000000
C     5.555000000     3.383000000    -0.632000000
H     6.481000000     3.433000000    -1.199000000
C     5.480000000     2.677000000     0.589000000
O     6.511000000     1.920000000     0.965000000
C     6.450000000     0.850000000     1.825000000
C     5.830000000    -0.248000000     1.309000000
H     5.402000000    -0.221000000     0.310000000
C     6.958000000     0.870000000     3.171000000
H     7.370000000     1.778000000     3.603000000
C     6.843000000    -0.325000000     3.918000000
H     7.273000000    -0.397000000     4.914000000
C     6.165000000    -1.461000000     3.418000000
H     6.222000000    -2.400000000     3.961000000
C     5.626000000    -1.360000000     2.132000000
O     5.053000000    -2.476000000     1.593000000
C     3.830000000    -2.997000000     1.947000000
C     3.748000000    -4.347000000     1.807000000
H     4.610000000    -4.842000000     1.366000000
C     2.574000000    -5.020000000     2.181000000
O     2.487000000    -6.358000000     1.898000000
C     1.293000000    -6.977000000     1.545000000
C     0.494000000    -6.622000000     0.428000000
H     0.793000000    -5.736000000    -0.125000000
C     1.135000000    -8.257000000     2.092000000
H     1.768000000    -8.583000000     2.913000000
C     0.117000000    -9.125000000     1.645000000
H     0.028000000   -10.161000000     1.963000000
C    -0.742000000    -8.638000000     0.666000000
H    -1.509000000    -9.344000000     0.358000000
C    -0.548000000    -7.435000000    -0.016000000
O    -1.399000000    -7.220000000    -1.035000000
C    -1.572000000    -5.973000000    -1.573000000
C    -1.346000000    -5.679000000    -2.931000000
H    -0.895000000    -6.465000000    -3.531000000
C    -1.663000000    -4.423000000    -3.490000000
O    -1.267000000    -4.113000000    -4.781000000
C    -1.608000000    -2.867000000    -5.282000000
C    -2.998000000    -2.705000000    -5.578000000
H    -3.664000000    -3.564000000    -5.538000000
C    -3.407000000    -1.519000000    -6.086000000
H    -4.459000000    -1.339000000    -6.292000000
C    -2.498000000    -0.520000000    -6.209000000
H    -2.769000000     0.465000000    -6.582000000
C    -1.178000000    -0.682000000    -5.823000000
C    -0.685000000    -1.880000000    -5.387000000
H     0.386000000    -1.995000000    -5.238000000
C     1.771000000     0.344000000    -1.314000000
H     2.377000000     1.207000000    -1.575000000
C     0.543000000     0.619000000    -0.625000000
H     0.204000000     1.642000000    -0.476000000
C    -0.182000000    -0.376000000    -0.063000000
H    -1.071000000    -0.164000000     0.516000000
C     0.250000000    -1.659000000    -0.011000000
H    -0.219000000    -2.411000000     0.619000000
C     1.411000000    -1.960000000    -0.734000000
H     1.643000000    -3.021000000    -0.724000000
C     2.102000000    -1.003000000    -1.462000000
C     3.319000000    -1.363000000    -2.242000000
O     3.501000000    -2.541000000    -2.446000000
O     3.959000000    -0.505000000    -2.930000000
O     7.793000000    -4.365000000     2.573000000
H     8.310000000    -5.003000000     2.081000000
H     7.233000000    -3.953000000     1.915000000
O     2.694000000     0.435000000    -5.144000000
H     3.170000000     0.118000000    -4.376000000
H     1.804000000     0.590000000    -4.828000000
O     6.352000000    -1.970000000    -2.113000000
H     6.682000000    -1.123000000    -2.412000000
H     5.429000000    -1.971000000    -2.367000000
O     6.757000000    -4.090000000    -0.166000000
H     6.811000000    -4.162000000    -1.119000000
H     6.143000000    -3.371000000    -0.015000000
O     4.038000000    -2.257000000    -6.319000000
H     3.964000000    -2.810000000    -5.541000000
H     3.520000000    -1.480000000    -6.111000000
O     8.534000000     0.004000000    -3.532000000
H     7.605000000     0.188000000    -3.392000000
H     8.989000000     0.738000000    -3.118000000
O     2.865000000    -2.959000000    -8.753000000
H     3.339000000    -2.870000000    -7.927000000
H     3.456000000    -3.458000000    -9.316000000
O     6.299000000    -6.426000000    -1.983000000
H     6.308000000    -7.273000000    -1.536000000
H     7.108000000    -6.416000000    -2.494000000
O     6.924000000     1.140000000    -6.020000000
H     7.591000000     0.693000000    -5.499000000
H     7.311000000     1.215000000    -6.892000000
O     4.479000000     2.511000000    -5.809000000
H     3.870000000     1.780000000    -5.709000000
H     5.320000000     2.097000000    -6.007000000
O     8.132000000    -3.775000000    -3.368000000
H     7.694000000    -3.901000000    -4.210000000
H     7.483000000    -3.327000000    -2.826000000
O     2.959000000    -4.180000000    -4.559000000
H     2.046000000    -4.350000000    -4.325000000
H     3.355000000    -3.847000000    -3.753000000
O     2.800000000     0.600000000    -8.277000000
H     3.712000000     0.427000000    -8.512000000
H     2.814000000     0.703000000    -7.325000000
O     4.434000000    -6.444000000    -5.071000000
H     3.870000000    -5.682000000    -5.200000000
H     4.827000000    -6.308000000    -4.208000000
O     6.045000000     1.000000000    -2.529000000
H     5.265000000     0.490000000    -2.746000000
H     5.778000000     1.911000000    -2.654000000
O     6.717000000    -3.270000000    -6.319000000
H     7.263000000    -2.598000000    -6.726000000
H     5.843000000    -2.881000000    -6.286000000
O     3.803000000    -5.139000000    -1.615000000
H     4.757000000    -5.065000000    -1.619000000
H     3.493000000    -4.238000000    -1.521000000
O     8.872000000    -1.184000000    -0.358000000
H     7.952000000    -0.953000000    -0.487000000
H     9.230000000    -1.246000000    -1.244000000
O     3.946000000    -7.728000000    -0.646000000
H     3.841000000    -8.041000000    -1.544000000
H     3.888000000    -6.775000000    -0.716000000
