215
-1467.35325
C     3.608000000     2.326000000     1.503000000
H     3.205000000     1.628000000     2.232000000
C     2.892000000     3.438000000     1.084000000
C     3.351000000     4.370000000     0.120000000
H     2.803000000     5.267000000    -0.158000000
C     1.462000000     3.566000000     1.675000000
O     1.457000000     3.726000000     3.106000000
H     0.987000000     2.609000000     1.410000000
O     0.817000000     4.673000000     1.147000000
C    -0.474000000     4.592000000     0.645000000
C    -0.581000000     4.299000000    -0.711000000
H     0.320000000     4.363000000    -1.316000000
C    -1.828000000     4.029000000    -1.270000000
O    -1.814000000     3.668000000    -2.603000000
C    -2.998000000     3.952000000    -0.479000000
C    -4.309000000     3.499000000    -1.094000000
H    -5.072000000     3.928000000    -0.441000000
C    -4.461000000     1.896000000    -1.277000000
C    -5.085000000     1.164000000    -0.280000000
H    -5.519000000     1.634000000     0.598000000
H    -4.480000000     3.972000000    -2.063000000
C    -2.845000000     4.195000000     0.881000000
H    -3.703000000     4.115000000     1.545000000
C    -1.570000000     4.478000000     1.462000000
C    -1.466000000     4.682000000     2.953000000
H    -2.456000000     4.976000000     3.307000000
H    -0.750000000     5.500000000     3.055000000
C    -0.963000000     3.392000000     3.607000000
C    -1.912000000     2.416000000     4.071000000
H    -2.973000000     2.643000000     4.133000000
C     0.385000000     3.056000000     3.703000000
C     0.750000000     1.802000000     4.133000000
H     1.772000000     1.432000000     4.136000000
C    -0.242000000     0.892000000     4.508000000
O     0.294000000    -0.376000000     4.745000000
C     0.228000000    -1.468000000     3.745000000
C     1.523000000    -2.284000000     3.750000000
C     1.483000000    -3.497000000     3.096000000
H     0.541000000    -3.852000000     2.686000000
C     2.710000000    -1.828000000     4.331000000
H     2.727000000    -0.915000000     4.920000000
O    -0.976000000    -2.215000000     4.266000000
H     0.042000000    -1.093000000     2.728000000
C    -1.566000000     1.167000000     4.526000000
C    -2.597000000     0.141000000     4.940000000
H    -3.570000000     0.495000000     5.286000000
H    -2.203000000    -0.421000000     5.790000000
C    -2.867000000    -0.883000000     3.808000000
C    -3.890000000    -0.599000000     2.929000000
H    -4.383000000     0.364000000     3.034000000
C    -2.110000000    -2.030000000     3.570000000
C    -2.507000000    -2.980000000     2.679000000
H    -1.981000000    -3.923000000     2.554000000
C    -3.539000000    -2.649000000     1.768000000
O    -3.683000000    -3.483000000     0.711000000
C    -3.270000000    -2.941000000    -0.544000000
C    -2.369000000    -3.954000000    -1.282000000
C    -1.851000000    -5.112000000    -0.687000000
H    -1.904000000    -5.236000000     0.392000000
C    -2.062000000    -3.714000000    -2.655000000
H    -2.234000000    -2.736000000    -3.097000000
O    -4.282000000    -2.319000000    -1.341000000
H    -2.555000000    -2.143000000    -0.296000000
C    -4.259000000    -1.485000000     1.897000000
C    -5.367000000    -1.053000000     0.939000000
H    -6.104000000    -0.523000000     1.546000000
H    -5.975000000    -1.883000000     0.576000000
C    -4.938000000    -0.232000000    -0.272000000
C    -4.375000000    -0.893000000    -1.366000000
C    -3.881000000    -0.195000000    -2.434000000
H    -3.410000000    -0.752000000    -3.241000000
C    -3.861000000     1.190000000    -2.356000000
O    -3.069000000     1.828000000    -3.353000000
C    -1.811000000     2.277000000    -3.006000000
H    -1.290000000     1.688000000    -2.236000000
C    -0.927000000     2.129000000    -4.250000000
C     0.261000000     2.841000000    -4.295000000
H     0.414000000     3.674000000    -3.613000000
C    -1.138000000     1.093000000    -5.153000000
H    -2.010000000     0.459000000    -5.014000000
C    -0.145000000     0.655000000    -6.049000000
O    -0.419000000    -0.277000000    -7.007000000
C     1.115000000     1.317000000    -5.954000000
H     2.022000000     1.006000000    -6.467000000
C     1.242000000     2.448000000    -5.113000000
O     2.462000000     2.986000000    -5.164000000
C     2.990000000     4.111000000    -4.564000000
C     3.800000000     3.993000000    -3.437000000
H     4.024000000     2.959000000    -3.189000000
C     2.561000000     5.365000000    -4.911000000
H     1.846000000     5.468000000    -5.724000000
C     3.088000000     6.483000000    -4.345000000
H     2.787000000     7.438000000    -4.768000000
C     3.880000000     6.371000000    -3.174000000
H     4.153000000     7.272000000    -2.631000000
C     4.163000000     5.113000000    -2.691000000
O     4.875000000     5.004000000    -1.528000000
C     4.492000000     4.086000000    -0.558000000
C     5.347000000     3.103000000    -0.053000000
H     6.296000000     2.962000000    -0.565000000
C     4.928000000     2.203000000     0.914000000
O     5.830000000     1.207000000     1.249000000
C     5.889000000     0.811000000     2.552000000
C     5.479000000    -0.446000000     2.876000000
H     5.153000000    -1.179000000     2.143000000
C     6.271000000     1.743000000     3.488000000
H     6.664000000     2.703000000     3.163000000
C     6.300000000     1.390000000     4.841000000
H     6.572000000     2.054000000     5.657000000
C     5.863000000     0.100000000     5.187000000
H     5.768000000    -0.310000000     6.189000000
C     5.507000000    -0.813000000     4.211000000
O     5.042000000    -2.053000000     4.660000000
C     3.860000000    -2.580000000     4.240000000
C     3.874000000    -3.818000000     3.645000000
H     4.723000000    -4.495000000     3.584000000
C     2.711000000    -4.269000000     3.054000000
O     2.746000000    -5.510000000     2.446000000
C     1.586000000    -6.156000000     2.149000000
C     1.081000000    -6.175000000     0.823000000
H     1.496000000    -5.488000000     0.089000000
C     1.090000000    -7.013000000     3.111000000
H     1.644000000    -6.974000000     4.045000000
C     0.039000000    -7.907000000     2.818000000
H    -0.255000000    -8.725000000     3.470000000
C    -0.557000000    -7.825000000     1.555000000
H    -1.438000000    -8.391000000     1.263000000
C     0.069000000    -7.067000000     0.581000000
O    -0.538000000    -7.072000000    -0.658000000
C    -1.037000000    -5.989000000    -1.379000000
C    -0.819000000    -5.825000000    -2.750000000
H    -0.310000000    -6.588000000    -3.333000000
C    -1.292000000    -4.639000000    -3.400000000
O    -1.086000000    -4.529000000    -4.805000000
C    -1.554000000    -3.431000000    -5.516000000
C    -2.883000000    -3.477000000    -6.006000000
H    -3.590000000    -4.254000000    -5.725000000
C    -3.417000000    -2.429000000    -6.784000000
H    -4.461000000    -2.543000000    -7.065000000
C    -2.594000000    -1.355000000    -7.077000000
H    -3.010000000    -0.491000000    -7.587000000
C    -1.259000000    -1.323000000    -6.648000000
C    -0.694000000    -2.356000000    -5.909000000
H     0.335000000    -2.371000000    -5.559000000
C     1.769000000     0.050000000    -2.152000000
H     2.439000000     0.587000000    -2.819000000
C     1.132000000     0.703000000    -1.045000000
H     1.406000000     1.749000000    -0.934000000
C     0.252000000     0.012000000    -0.173000000
H    -0.199000000     0.517000000     0.691000000
C    -0.032000000    -1.346000000    -0.410000000
H    -0.726000000    -1.917000000     0.201000000
C     0.671000000    -1.941000000    -1.503000000
H     0.672000000    -3.027000000    -1.538000000
C     1.528000000    -1.319000000    -2.394000000
C     2.285000000    -2.163000000    -3.402000000
O     2.043000000    -3.327000000    -3.627000000
O     3.184000000    -1.593000000    -4.051000000
O     4.752000000    -4.939000000    -6.425000000
H     5.377000000    -4.421000000    -5.917000000
H     3.972000000    -4.386000000    -6.481000000
O     4.210000000    -0.485000000    -6.200000000
H     3.831000000    -0.798000000    -5.378000000
H     5.055000000    -0.931000000    -6.258000000
O     3.168000000    -2.458000000     0.249000000
H     2.431000000    -2.344000000     0.848000000
H     3.270000000    -1.603000000    -0.170000000
O     5.237000000     2.036000000    -7.333000000
H     5.143000000     2.537000000    -6.523000000
H     4.629000000     1.303000000    -7.234000000
O     2.697000000    -3.160000000    -6.436000000
H     3.007000000    -2.275000000    -6.627000000
H     2.428000000    -3.127000000    -5.518000000
O     7.890000000    -1.266000000    -2.376000000
H     8.485000000    -1.147000000    -3.116000000
H     7.804000000    -0.392000000    -1.995000000
O     1.109000000    -5.076000000    -7.556000000
H     1.507000000    -4.290000000    -7.182000000
H     0.455000000    -4.745000000    -8.171000000
O     2.966000000    -5.671000000    -2.315000000
H     2.788000000    -6.278000000    -3.033000000
H     2.631000000    -4.829000000    -2.624000000
O     5.978000000    -6.963000000    -5.162000000
H     6.624000000    -7.394000000    -5.723000000
H     5.501000000    -6.379000000    -5.752000000
O     6.854000000     2.157000000    -3.656000000
H     7.420000000     2.052000000    -2.891000000
H     6.164000000     1.506000000    -3.534000000
O     6.908000000    -1.498000000    -6.127000000
H     6.481000000    -1.652000000    -6.970000000
H     6.678000000    -2.263000000    -5.599000000
O     6.229000000    -4.363000000    -2.181000000
H     6.487000000    -5.254000000    -1.947000000
H     5.518000000    -4.152000000    -1.576000000
O     1.795000000    -5.916000000    -5.064000000
H     1.432000000    -5.698000000    -5.923000000
H     1.629000000    -5.139000000    -4.530000000
O     2.771000000    -1.072000000    -9.202000000
H     3.002000000    -1.684000000    -8.504000000
H     2.629000000    -1.626000000    -9.969000000
O     3.640000000    -7.954000000    -4.620000000
H     2.985000000    -7.271000000    -4.762000000
H     4.470000000    -7.544000000    -4.866000000
O     5.088000000     0.071000000    -2.808000000
H     4.423000000    -0.441000000    -3.268000000
H     5.687000000    -0.584000000    -2.449000000
O     4.234000000    -4.883000000    -0.076000000
H     3.523000000    -5.121000000    -0.670000000
H     3.876000000    -4.169000000     0.452000000
O     3.852000000    -8.416000000    -1.512000000
H     3.455000000    -8.860000000    -0.763000000
H     3.479000000    -7.535000000    -1.493000000
O     5.657000000    -3.104000000    -4.413000000
H     5.942000000    -3.637000000    -3.671000000
H     4.831000000    -2.715000000    -4.127000000
