215
-1458.65942
C     4.193000000     2.718000000     0.985000000
H     3.778000000     2.244000000     1.871000000
C     3.390000000     3.507000000     0.223000000
C     3.790000000     3.990000000    -1.049000000
H     3.132000000     4.657000000    -1.601000000
C     1.979000000     3.738000000     0.730000000
O     1.983000000     3.950000000     2.143000000
H     1.562000000     2.758000000     0.454000000
O     1.225000000     4.863000000     0.047000000
C    -0.010000000     4.689000000    -0.340000000
C    -0.319000000     4.421000000    -1.668000000
H     0.485000000     4.333000000    -2.394000000
C    -1.617000000     4.081000000    -1.980000000
O    -1.878000000     3.523000000    -3.176000000
C    -2.659000000     4.134000000    -1.045000000
C    -4.085000000     3.677000000    -1.404000000
H    -4.712000000     4.226000000    -0.698000000
C    -4.263000000     2.123000000    -1.211000000
C    -4.808000000     1.689000000    -0.022000000
H    -5.169000000     2.389000000     0.728000000
H    -4.353000000     4.051000000    -2.394000000
C    -2.391000000     4.569000000     0.270000000
H    -3.151000000     4.558000000     1.047000000
C    -1.027000000     4.736000000     0.594000000
C    -0.686000000     5.076000000     2.020000000
H    -1.435000000     5.710000000     2.500000000
H     0.058000000     5.875000000     2.044000000
C    -0.316000000     3.820000000     2.877000000
C    -1.230000000     3.160000000     3.639000000
H    -2.237000000     3.569000000     3.632000000
C     1.023000000     3.361000000     2.924000000
C     1.340000000     2.168000000     3.583000000
H     2.347000000     1.771000000     3.679000000
C     0.372000000     1.471000000     4.264000000
O     0.748000000     0.258000000     4.852000000
C     0.375000000    -0.885000000     4.093000000
C     1.535000000    -1.849000000     3.995000000
C     1.263000000    -3.188000000     3.696000000
H     0.236000000    -3.541000000     3.671000000
C     2.897000000    -1.460000000     4.197000000
H     3.119000000    -0.438000000     4.494000000
O    -0.725000000    -1.479000000     4.643000000
H     0.242000000    -0.530000000     3.060000000
C    -0.972000000     1.930000000     4.287000000
C    -2.055000000     1.094000000     5.016000000
H    -2.803000000     1.814000000     5.355000000
H    -1.552000000     0.655000000     5.880000000
C    -2.628000000    -0.054000000     4.207000000
C    -3.800000000     0.178000000     3.473000000
H    -4.346000000     1.117000000     3.523000000
C    -1.970000000    -1.245000000     4.040000000
C    -2.438000000    -2.188000000     3.062000000
H    -1.970000000    -3.156000000     2.904000000
C    -3.522000000    -1.854000000     2.287000000
O    -3.934000000    -2.727000000     1.324000000
C    -3.492000000    -2.634000000    -0.039000000
C    -3.188000000    -4.010000000    -0.647000000
C    -2.594000000    -4.890000000     0.178000000
H    -2.363000000    -4.673000000     1.218000000
C    -3.242000000    -4.252000000    -2.026000000
H    -3.650000000    -3.414000000    -2.586000000
O    -4.568000000    -1.957000000    -0.701000000
H    -2.568000000    -2.037000000    -0.057000000
C    -4.225000000    -0.689000000     2.478000000
C    -5.364000000    -0.267000000     1.545000000
H    -6.034000000     0.430000000     2.054000000
H    -5.909000000    -1.195000000     1.363000000
C    -4.925000000     0.275000000     0.131000000
C    -4.510000000    -0.567000000    -0.901000000
C    -4.077000000    -0.094000000    -2.140000000
H    -3.714000000    -0.768000000    -2.912000000
C    -3.927000000     1.230000000    -2.299000000
O    -3.226000000     1.574000000    -3.435000000
C    -1.909000000     2.065000000    -3.145000000
H    -1.721000000     1.758000000    -2.106000000
C    -0.815000000     1.313000000    -4.024000000
C     0.160000000     2.051000000    -4.648000000
H     0.205000000     3.136000000    -4.695000000
C    -0.841000000    -0.101000000    -4.222000000
H    -1.665000000    -0.709000000    -3.856000000
C     0.175000000    -0.736000000    -4.901000000
O     0.141000000    -2.079000000    -5.158000000
C     1.227000000     0.011000000    -5.489000000
H     2.003000000    -0.428000000    -6.110000000
C     1.173000000     1.383000000    -5.335000000
O     2.209000000     2.029000000    -6.009000000
C     2.866000000     3.133000000    -5.487000000
C     3.737000000     3.072000000    -4.419000000
H     3.977000000     2.108000000    -3.978000000
C     2.681000000     4.363000000    -6.097000000
H     1.973000000     4.534000000    -6.904000000
C     3.341000000     5.511000000    -5.623000000
H     3.070000000     6.466000000    -6.064000000
C     4.155000000     5.474000000    -4.486000000
H     4.625000000     6.388000000    -4.133000000
C     4.387000000     4.203000000    -3.872000000
O     5.287000000     4.122000000    -2.809000000
C     4.994000000     3.679000000    -1.511000000
C     5.793000000     2.821000000    -0.824000000
H     6.707000000     2.505000000    -1.321000000
C     5.466000000     2.341000000     0.432000000
O     6.288000000     1.517000000     1.067000000
C     6.009000000     0.991000000     2.313000000
C     5.681000000    -0.305000000     2.553000000
H     5.398000000    -0.971000000     1.742000000
C     6.050000000     1.904000000     3.388000000
H     6.299000000     2.948000000     3.212000000
C     5.959000000     1.451000000     4.732000000
H     6.048000000     2.061000000     5.628000000
C     5.786000000     0.121000000     4.994000000
H     5.598000000    -0.245000000     6.000000000
C     5.689000000    -0.775000000     3.896000000
O     5.229000000    -2.006000000     4.175000000
C     3.954000000    -2.391000000     4.058000000
C     3.628000000    -3.731000000     3.744000000
H     4.433000000    -4.444000000     3.584000000
C     2.295000000    -4.086000000     3.448000000
O     2.025000000    -5.350000000     3.037000000
C     0.803000000    -5.871000000     2.995000000
C     0.274000000    -6.165000000     1.795000000
H     0.734000000    -5.843000000     0.864000000
C     0.068000000    -6.123000000     4.139000000
H     0.523000000    -5.762000000     5.058000000
C    -1.184000000    -6.646000000     4.015000000
H    -1.796000000    -6.747000000     4.908000000
C    -1.663000000    -7.025000000     2.797000000
H    -2.645000000    -7.473000000     2.666000000
C    -0.940000000    -6.802000000     1.605000000
O    -1.445000000    -7.048000000     0.347000000
C    -2.077000000    -6.072000000    -0.422000000
C    -2.165000000    -6.293000000    -1.820000000
H    -1.666000000    -7.169000000    -2.226000000
C    -2.741000000    -5.388000000    -2.625000000
O    -2.612000000    -5.559000000    -3.981000000
C    -2.351000000    -4.573000000    -4.869000000
C    -3.158000000    -4.378000000    -5.991000000
H    -4.084000000    -4.916000000    -6.179000000
C    -2.840000000    -3.315000000    -6.897000000
H    -3.525000000    -3.061000000    -7.702000000
C    -1.743000000    -2.511000000    -6.568000000
H    -1.451000000    -1.647000000    -7.160000000
C    -0.978000000    -2.813000000    -5.464000000
C    -1.177000000    -3.855000000    -4.689000000
H    -0.433000000    -4.118000000    -3.942000000
C     1.562000000    -0.350000000    -1.009000000
H     2.397000000    -0.389000000    -1.704000000
C     0.813000000     0.855000000    -0.843000000
H     0.931000000     1.816000000    -1.338000000
C    -0.296000000     0.819000000     0.022000000
H    -0.893000000     1.738000000     0.117000000
C    -0.654000000    -0.325000000     0.638000000
H    -1.555000000    -0.286000000     1.246000000
C     0.071000000    -1.483000000     0.445000000
H    -0.262000000    -2.440000000     0.838000000
C     1.212000000    -1.522000000    -0.325000000
C     1.951000000    -2.765000000    -0.681000000
O     1.337000000    -3.833000000    -0.526000000
O     3.084000000    -2.655000000    -1.180000000
O     3.188000000    -6.934000000    -5.551000000
H     2.591000000    -6.611000000    -4.876000000
H     2.657000000    -6.961000000    -6.347000000
O     8.482000000    -1.420000000     1.279000000
H     8.544000000    -0.973000000     2.123000000
H     7.700000000    -1.967000000     1.355000000
O     4.639000000    -0.318000000    -3.899000000
H     4.000000000    -0.998000000    -4.113000000
H     4.887000000    -0.500000000    -2.993000000
O     4.126000000    -4.815000000     0.860000000
H     3.561000000    -5.385000000     1.381000000
H     3.552000000    -4.468000000     0.177000000
O     2.550000000    -2.254000000    -3.868000000
H     2.802000000    -2.438000000    -2.963000000
H     1.600000000    -2.143000000    -3.835000000
O     6.742000000    -2.601000000    -3.175000000
H     6.787000000    -3.541000000    -3.354000000
H     6.377000000    -2.223000000    -3.975000000
O     1.515000000    -2.597000000    -7.665000000
H     1.170000000    -3.477000000    -7.816000000
H     2.290000000    -2.734000000    -7.120000000
O     1.287000000    -6.092000000    -1.797000000
H     0.843000000    -5.711000000    -2.555000000
H     1.273000000    -5.397000000    -1.138000000
O     7.679000000     0.235000000    -1.601000000
H     6.787000000    -0.084000000    -1.460000000
H     8.216000000    -0.558000000    -1.619000000
O     6.148000000    -2.432000000    -6.166000000
H     6.002000000    -1.928000000    -6.967000000
H     5.315000000    -2.876000000    -6.008000000
O     6.284000000    -3.298000000     0.691000000
H     5.554000000    -3.861000000     0.946000000
H     6.347000000    -3.403000000    -0.258000000
O     8.064000000    -4.918000000     2.151000000
H     8.962000000    -4.587000000     2.146000000
H     7.588000000    -4.329000000     1.567000000
O     3.714000000    -3.716000000    -5.761000000
H     3.230000000    -4.540000000    -5.802000000
H     3.357000000    -3.266000000    -4.996000000
O     1.922000000    -8.849000000    -1.365000000
H     1.039000000    -9.006000000    -1.031000000
H     1.932000000    -7.919000000    -1.592000000
O     0.447000000    -7.003000000    -4.422000000
H    -0.272000000    -7.265000000    -4.997000000
H     0.277000000    -7.464000000    -3.601000000
O     4.922000000    -0.632000000    -1.276000000
H     4.290000000    -1.350000000    -1.225000000
H     4.690000000    -0.057000000    -0.547000000
O     6.576000000    -5.414000000    -3.182000000
H     5.687000000    -5.459000000    -2.830000000
H     7.130000000    -5.271000000    -2.415000000
O     5.288000000    -7.834000000     0.802000000
H     5.472000000    -8.277000000    -0.026000000
H     5.078000000    -6.935000000     0.551000000
O     3.970000000    -5.055000000    -2.228000000
H     3.255000000    -5.653000000    -2.010000000
H     3.634000000    -4.188000000    -2.000000000
