215
-1478.85501
C     4.879000000    -0.784000000    -2.315000000
H     4.438000000    -1.777000000    -2.341000000
C     4.941000000    -0.040000000    -1.142000000
C     5.403000000     1.285000000    -1.129000000
H     5.445000000     1.780000000    -0.162000000
C     4.416000000    -0.628000000     0.106000000
O     4.716000000    -2.066000000     0.159000000
H     3.331000000    -0.507000000     0.236000000
O     5.078000000    -0.098000000     1.263000000
C     4.255000000     0.240000000     2.320000000
C     3.690000000     1.488000000     2.432000000
H     3.981000000     2.297000000     1.766000000
C     2.724000000     1.731000000     3.345000000
O     2.077000000     2.970000000     3.188000000
C     2.334000000     0.816000000     4.336000000
C     1.288000000     1.125000000     5.381000000
H     1.573000000     0.543000000     6.260000000
C    -0.051000000     0.811000000     4.816000000
C    -0.650000000    -0.476000000     4.853000000
H    -0.147000000    -1.293000000     5.362000000
H     1.292000000     2.155000000     5.743000000
C     2.960000000    -0.396000000     4.246000000
H     2.827000000    -1.146000000     5.022000000
C     3.725000000    -0.759000000     3.153000000
C     4.184000000    -2.263000000     3.008000000
H     4.070000000    -2.834000000     3.932000000
H     5.268000000    -2.306000000     2.884000000
C     3.426000000    -3.008000000     1.941000000
C     2.384000000    -3.910000000     2.295000000
H     2.322000000    -4.151000000     3.353000000
C     3.677000000    -2.879000000     0.556000000
C     2.769000000    -3.416000000    -0.402000000
H     3.034000000    -3.352000000    -1.454000000
C     1.672000000    -4.188000000     0.005000000
O     0.800000000    -4.446000000    -1.010000000
C    -0.561000000    -3.851000000    -1.039000000
C    -0.941000000    -3.429000000    -2.428000000
C    -2.295000000    -3.404000000    -2.840000000
H    -3.079000000    -3.906000000    -2.278000000
C     0.010000000    -2.808000000    -3.233000000
H     1.039000000    -2.808000000    -2.881000000
O    -1.551000000    -4.753000000    -0.449000000
H    -0.531000000    -2.997000000    -0.346000000
C     1.466000000    -4.482000000     1.345000000
C     0.289000000    -5.326000000     1.884000000
H     0.450000000    -5.646000000     2.916000000
H     0.293000000    -6.199000000     1.228000000
C    -0.992000000    -4.585000000     1.955000000
C    -1.303000000    -3.879000000     3.123000000
H    -0.675000000    -4.023000000     3.999000000
C    -1.876000000    -4.445000000     0.859000000
C    -3.116000000    -3.802000000     1.035000000
H    -3.691000000    -3.672000000     0.122000000
C    -3.343000000    -3.099000000     2.176000000
O    -4.242000000    -2.074000000     2.115000000
C    -3.758000000    -0.770000000     1.856000000
C    -4.700000000    -0.030000000     0.898000000
C    -5.315000000    -0.739000000    -0.125000000
H    -5.145000000    -1.810000000    -0.197000000
C    -4.889000000     1.378000000     1.030000000
H    -4.413000000     2.031000000     1.758000000
O    -3.747000000    -0.002000000     3.054000000
H    -2.771000000    -0.761000000     1.371000000
C    -2.415000000    -3.049000000     3.236000000
C    -2.562000000    -2.131000000     4.454000000
H    -2.094000000    -2.516000000     5.362000000
H    -3.609000000    -1.995000000     4.733000000
C    -1.872000000    -0.780000000     4.278000000
C    -2.613000000     0.265000000     3.675000000
C    -2.017000000     1.532000000     3.560000000
H    -2.420000000     2.334000000     2.946000000
C    -0.748000000     1.832000000     4.092000000
O    -0.136000000     3.043000000     3.741000000
C     0.752000000     3.027000000     2.666000000
H     0.537000000     2.085000000     2.139000000
C     0.599000000     4.245000000     1.770000000
C     1.730000000     4.735000000     1.132000000
H     2.724000000     4.376000000     1.388000000
C    -0.661000000     4.590000000     1.248000000
H    -1.535000000     4.131000000     1.702000000
C    -0.737000000     5.396000000     0.120000000
O    -1.979000000     5.700000000    -0.478000000
C     0.400000000     5.809000000    -0.567000000
H     0.391000000     6.389000000    -1.487000000
C     1.643000000     5.534000000    -0.033000000
O     2.729000000     5.913000000    -0.780000000
C     4.020000000     5.505000000    -0.628000000
C     4.517000000     4.525000000    -1.566000000
H     3.794000000     4.044000000    -2.219000000
C     4.889000000     6.152000000     0.242000000
H     4.516000000     6.965000000     0.860000000
C     6.207000000     5.806000000     0.213000000
H     6.921000000     6.432000000     0.742000000
C     6.703000000     4.795000000    -0.588000000
H     7.770000000     4.588000000    -0.604000000
C     5.871000000     4.160000000    -1.521000000
O     6.410000000     3.149000000    -2.234000000
C     5.851000000     1.917000000    -2.314000000
C     5.800000000     1.123000000    -3.472000000
H     6.242000000     1.544000000    -4.371000000
C     5.315000000    -0.170000000    -3.483000000
O     5.093000000    -0.787000000    -4.660000000
C     4.174000000    -1.759000000    -4.881000000
C     2.791000000    -1.301000000    -4.850000000
H     2.496000000    -0.300000000    -4.547000000
C     4.573000000    -3.021000000    -5.352000000
H     5.622000000    -3.306000000    -5.381000000
C     3.543000000    -3.941000000    -5.751000000
H     3.843000000    -4.898000000    -6.169000000
C     2.232000000    -3.512000000    -5.692000000
H     1.389000000    -4.121000000    -6.008000000
C     1.863000000    -2.239000000    -5.301000000
O     0.603000000    -1.840000000    -5.349000000
C    -0.350000000    -2.281000000    -4.446000000
C    -1.636000000    -2.384000000    -4.906000000
H    -1.757000000    -2.129000000    -5.955000000
C    -2.628000000    -2.888000000    -4.109000000
O    -3.824000000    -3.107000000    -4.669000000
C    -4.975000000    -3.006000000    -4.013000000
C    -5.235000000    -2.054000000    -3.046000000
H    -4.432000000    -1.362000000    -2.806000000
C    -5.982000000    -3.920000000    -4.446000000
H    -5.724000000    -4.829000000    -4.983000000
C    -7.260000000    -3.791000000    -3.880000000
H    -8.084000000    -4.409000000    -4.227000000
C    -7.542000000    -2.725000000    -3.008000000
H    -8.552000000    -2.587000000    -2.631000000
C    -6.526000000    -1.890000000    -2.578000000
O    -6.951000000    -0.932000000    -1.735000000
C    -6.182000000    -0.093000000    -0.944000000
C    -6.437000000     1.253000000    -0.754000000
H    -7.220000000     1.724000000    -1.343000000
C    -5.747000000     2.014000000     0.144000000
O    -6.123000000     3.395000000     0.265000000
C    -5.295000000     4.352000000     0.640000000
C    -5.634000000     5.287000000     1.605000000
H    -6.582000000     5.277000000     2.138000000
C    -4.752000000     6.352000000     1.884000000
H    -5.032000000     7.131000000     2.588000000
C    -3.529000000     6.376000000     1.265000000
H    -2.858000000     7.219000000     1.410000000
C    -3.177000000     5.454000000     0.256000000
C    -4.080000000     4.383000000    -0.005000000
H    -3.808000000     3.599000000    -0.707000000
C    -1.176000000     1.005000000    -1.971000000
H    -1.916000000     1.071000000    -2.765000000
C    -1.428000000     0.132000000    -0.896000000
H    -2.386000000    -0.381000000    -0.911000000
C    -0.538000000     0.069000000     0.168000000
H    -0.676000000    -0.495000000     1.096000000
C     0.630000000     0.793000000     0.085000000
H     1.375000000     0.624000000     0.859000000
C     0.891000000     1.652000000    -0.975000000
H     1.800000000     2.246000000    -1.019000000
C    -0.030000000     1.823000000    -2.047000000
C     0.218000000     2.768000000    -3.170000000
O     1.372000000     3.149000000    -3.526000000
O    -0.721000000     3.005000000    -3.917000000
O     1.277000000     5.855000000    -7.734000000
H     1.819000000     5.191000000    -7.308000000
H     0.760000000     5.366000000    -8.375000000
O     3.377000000     2.253000000    -4.984000000
H     2.598000000     2.587000000    -4.539000000
H     3.650000000     2.969000000    -5.558000000
O    -0.018000000     1.322000000    -6.271000000
H     0.899000000     1.486000000    -6.494000000
H    -0.206000000     1.937000000    -5.562000000
O     5.767000000     4.132000000    -5.128000000
H     6.285000000     4.315000000    -4.344000000
H     4.965000000     4.642000000    -5.009000000
O    -2.394000000     5.230000000    -3.392000000
H    -2.485000000     4.285000000    -3.516000000
H    -2.130000000     5.327000000    -2.477000000
O    -4.195000000     6.519000000    -5.040000000
H    -4.131000000     6.052000000    -4.207000000
H    -3.418000000     6.245000000    -5.529000000
O    -2.414000000     8.386000000    -1.083000000
H    -2.195000000     7.456000000    -1.028000000
H    -1.824000000     8.732000000    -1.753000000
O     2.857000000     3.596000000    -8.509000000
H     3.320000000     3.667000000    -9.344000000
H     2.647000000     2.666000000    -8.430000000
O     3.051000000     7.671000000    -3.113000000
H     3.033000000     7.245000000    -2.257000000
H     2.309000000     7.293000000    -3.585000000
O    -4.508000000     1.292000000    -3.617000000
H    -3.753000000     1.033000000    -4.147000000
H    -4.156000000     1.924000000    -2.991000000
O     0.291000000     5.927000000    -4.090000000
H     0.344000000     4.990000000    -3.904000000
H    -0.603000000     6.058000000    -4.408000000
O    -1.765000000     4.102000000    -6.039000000
H    -1.380000000     3.817000000    -5.210000000
H    -1.016000000     4.217000000    -6.624000000
O    -0.549000000     3.850000000    -8.660000000
H     0.163000000     3.219000000    -8.769000000
H    -1.291000000     3.457000000    -9.120000000
O    -3.933000000     2.782000000    -7.211000000
H    -3.317000000     3.336000000    -6.732000000
H    -4.795000000     3.062000000    -6.905000000
O    -0.500000000    -0.787000000    -8.103000000
H    -0.185000000    -0.240000000    -8.822000000
H    -0.425000000    -0.230000000    -7.328000000
O    -2.981000000     0.643000000    -6.026000000
H    -3.289000000     1.429000000    -6.476000000
H    -2.044000000     0.607000000    -6.220000000
O     3.210000000     0.947000000    -7.518000000
H     3.969000000     0.390000000    -7.694000000
H     3.363000000     1.288000000    -6.636000000
O     3.145000000     4.942000000    -5.135000000
H     2.854000000     4.687000000    -4.260000000
H     2.505000000     5.594000000    -5.421000000
O    -2.452000000     6.478000000    -8.325000000
H    -2.554000000     5.612000000    -7.930000000
H    -2.420000000     6.310000000    -9.267000000
