215
-1455.45476
C     4.717000000    -0.827000000    -2.501000000
H     4.303000000    -1.832000000    -2.493000000
C     4.731000000    -0.138000000    -1.281000000
C     5.239000000     1.177000000    -1.297000000
H     5.371000000     1.745000000    -0.380000000
C     4.348000000    -0.831000000     0.037000000
O     4.362000000    -2.235000000    -0.120000000
H     3.299000000    -0.526000000     0.165000000
O     5.149000000    -0.448000000     1.154000000
C     4.451000000    -0.283000000     2.342000000
C     3.995000000     1.072000000     2.643000000
H     4.405000000     1.912000000     2.087000000
C     2.983000000     1.293000000     3.548000000
O     2.422000000     2.486000000     3.636000000
C     2.461000000     0.228000000     4.302000000
C     1.335000000     0.556000000     5.383000000
H     1.393000000    -0.060000000     6.282000000
C    -0.078000000     0.449000000     4.819000000
C    -0.815000000    -0.756000000     5.038000000
H    -0.342000000    -1.623000000     5.491000000
H     1.382000000     1.613000000     5.652000000
C     2.892000000    -1.063000000     4.070000000
H     2.495000000    -1.855000000     4.700000000
C     3.845000000    -1.293000000     3.044000000
C     4.077000000    -2.784000000     2.683000000
H     3.906000000    -3.261000000     3.650000000
H     5.076000000    -3.032000000     2.319000000
C     3.146000000    -3.316000000     1.680000000
C     2.013000000    -4.038000000     2.048000000
H     1.870000000    -4.263000000     3.102000000
C     3.286000000    -2.964000000     0.384000000
C     2.472000000    -3.449000000    -0.621000000
H     2.727000000    -3.278000000    -1.664000000
C     1.355000000    -4.143000000    -0.304000000
O     0.527000000    -4.451000000    -1.281000000
C    -0.758000000    -3.784000000    -1.307000000
C    -1.148000000    -3.318000000    -2.680000000
C    -2.467000000    -3.126000000    -3.087000000
H    -3.295000000    -3.319000000    -2.410000000
C    -0.143000000    -3.094000000    -3.684000000
H     0.904000000    -3.248000000    -3.434000000
O    -1.899000000    -4.432000000    -0.629000000
H    -0.642000000    -2.811000000    -0.808000000
C     1.091000000    -4.369000000     1.069000000
C    -0.106000000    -5.119000000     1.543000000
H     0.172000000    -5.627000000     2.469000000
H    -0.218000000    -5.958000000     0.852000000
C    -1.298000000    -4.235000000     1.720000000
C    -1.595000000    -3.733000000     2.944000000
H    -0.865000000    -3.811000000     3.745000000
C    -2.148000000    -3.934000000     0.633000000
C    -3.330000000    -3.280000000     0.841000000
H    -3.990000000    -3.218000000    -0.021000000
C    -3.616000000    -2.713000000     2.108000000
O    -4.572000000    -1.765000000     2.105000000
C    -4.037000000    -0.409000000     1.994000000
C    -4.885000000     0.406000000     1.076000000
C    -5.522000000    -0.247000000     0.024000000
H    -5.305000000    -1.300000000    -0.134000000
C    -5.039000000     1.711000000     1.244000000
H    -4.542000000     2.297000000     2.012000000
O    -3.869000000     0.170000000     3.206000000
H    -3.031000000    -0.486000000     1.556000000
C    -2.726000000    -2.950000000     3.179000000
C    -2.847000000    -2.214000000     4.487000000
H    -2.373000000    -2.908000000     5.185000000
H    -3.927000000    -2.136000000     4.633000000
C    -2.120000000    -0.898000000     4.468000000
C    -2.642000000     0.245000000     3.820000000
C    -1.975000000     1.474000000     3.736000000
H    -2.389000000     2.318000000     3.190000000
C    -0.702000000     1.549000000     4.265000000
O     0.050000000     2.718000000     3.923000000
C     1.101000000     2.529000000     2.912000000
H     0.995000000     1.602000000     2.330000000
C     0.943000000     3.613000000     1.905000000
C     2.092000000     4.210000000     1.426000000
H     3.073000000     3.858000000     1.736000000
C    -0.351000000     4.056000000     1.443000000
H    -1.222000000     3.539000000     1.838000000
C    -0.383000000     5.113000000     0.553000000
O    -1.617000000     5.444000000    -0.033000000
C     0.753000000     5.749000000     0.140000000
H     0.673000000     6.606000000    -0.524000000
C     2.039000000     5.250000000     0.453000000
O     3.065000000     5.884000000    -0.119000000
C     4.321000000     5.409000000    -0.273000000
C     4.589000000     4.389000000    -1.125000000
H     3.867000000     3.808000000    -1.693000000
C     5.334000000     6.143000000     0.341000000
H     5.068000000     6.982000000     0.979000000
C     6.663000000     5.858000000     0.059000000
H     7.495000000     6.499000000     0.339000000
C     6.944000000     4.709000000    -0.740000000
H     7.946000000     4.348000000    -0.958000000
C     5.920000000     4.117000000    -1.456000000
O     6.253000000     3.132000000    -2.384000000
C     5.674000000     1.875000000    -2.433000000
C     5.685000000     1.120000000    -3.603000000
H     6.111000000     1.617000000    -4.471000000
C     5.204000000    -0.244000000    -3.633000000
O     5.232000000    -0.906000000    -4.844000000
C     4.235000000    -1.762000000    -5.238000000
C     2.976000000    -1.310000000    -5.318000000
H     2.636000000    -0.373000000    -4.887000000
C     4.592000000    -3.053000000    -5.591000000
H     5.637000000    -3.329000000    -5.703000000
C     3.617000000    -3.983000000    -6.064000000
H     3.912000000    -4.957000000    -6.446000000
C     2.332000000    -3.534000000    -6.075000000
H     1.506000000    -4.122000000    -6.466000000
C     1.960000000    -2.257000000    -5.694000000
O     0.634000000    -1.891000000    -5.625000000
C    -0.393000000    -2.435000000    -4.859000000
C    -1.678000000    -2.169000000    -5.176000000
H    -1.968000000    -1.647000000    -6.084000000
C    -2.736000000    -2.528000000    -4.356000000
O    -4.009000000    -2.373000000    -4.871000000
C    -5.117000000    -2.315000000    -4.091000000
C    -5.413000000    -1.267000000    -3.281000000
H    -4.849000000    -0.346000000    -3.406000000
C    -5.938000000    -3.412000000    -4.084000000
H    -5.716000000    -4.242000000    -4.749000000
C    -7.126000000    -3.407000000    -3.394000000
H    -7.795000000    -4.242000000    -3.590000000
C    -7.405000000    -2.370000000    -2.537000000
H    -8.307000000    -2.290000000    -1.935000000
C    -6.594000000    -1.224000000    -2.575000000
O    -7.013000000    -0.088000000    -1.962000000
C    -6.379000000     0.451000000    -0.865000000
C    -6.516000000     1.825000000    -0.681000000
H    -7.185000000     2.382000000    -1.332000000
C    -5.922000000     2.388000000     0.400000000
O    -6.099000000     3.743000000     0.596000000
C    -5.088000000     4.607000000     0.898000000
C    -5.213000000     5.405000000     2.036000000
H    -6.107000000     5.517000000     2.644000000
C    -4.187000000     6.243000000     2.473000000
H    -4.304000000     6.847000000     3.369000000
C    -2.987000000     6.280000000     1.716000000
H    -2.203000000     6.918000000     2.118000000
C    -2.803000000     5.412000000     0.656000000
C    -3.854000000     4.548000000     0.241000000
H    -3.652000000     3.806000000    -0.528000000
C    -1.129000000     0.402000000    -1.810000000
H    -1.963000000     0.545000000    -2.492000000
C    -1.393000000    -0.422000000    -0.679000000
H    -2.353000000    -0.886000000    -0.470000000
C    -0.468000000    -0.438000000     0.374000000
H    -0.709000000    -0.951000000     1.265000000
C     0.774000000     0.221000000     0.191000000
H     1.586000000     0.014000000     0.883000000
C     1.055000000     1.032000000    -0.972000000
H     2.025000000     1.505000000    -1.105000000
C     0.064000000     1.070000000    -2.010000000
C     0.177000000     2.101000000    -3.105000000
O     1.081000000     2.936000000    -3.080000000
O    -0.632000000     2.244000000    -4.042000000
O     3.909000000     4.510000000    -6.911000000
H     2.968000000     4.682000000    -6.938000000
H     4.032000000     3.758000000    -7.490000000
O     1.037000000     4.261000000    -5.716000000
H     1.558000000     3.459000000    -5.752000000
H     0.676000000     4.272000000    -4.829000000
O    -1.399000000     1.560000000    -6.444000000
H    -1.346000000     2.394000000    -6.911000000
H    -1.019000000     1.742000000    -5.584000000
O     1.635000000     2.105000000    -9.165000000
H     2.260000000     2.182000000    -9.886000000
H     0.941000000     2.727000000    -9.382000000
O     6.036000000     4.455000000    -5.211000000
H     5.477000000     4.044000000    -4.552000000
H     5.427000000     4.777000000    -5.875000000
O    -0.270000000     8.198000000    -3.342000000
H    -0.071000000     7.262000000    -3.301000000
H     0.072000000     8.478000000    -4.191000000
O    -2.358000000     4.071000000    -2.981000000
H    -1.817000000     3.397000000    -3.392000000
H    -2.727000000     4.562000000    -3.714000000
O    -3.648000000     6.739000000    -2.063000000
H    -3.237000000     5.876000000    -2.020000000
H    -3.683000000     7.033000000    -1.153000000
O    -3.649000000     5.306000000    -5.144000000
H    -3.944000000     6.215000000    -5.189000000
H    -4.440000000     4.807000000    -4.940000000
O     3.391000000     5.821000000    -3.969000000
H     2.652000000     5.629000000    -3.392000000
H     3.553000000     6.756000000    -3.848000000
O     0.306000000     5.427000000    -2.855000000
H     0.728000000     4.570000000    -2.794000000
H    -0.624000000     5.229000000    -2.962000000
O    -2.092000000     4.511000000    -7.436000000
H    -1.514000000     5.274000000    -7.433000000
H    -2.509000000     4.523000000    -6.574000000
O    -0.444000000     3.759000000    -9.532000000
H    -1.025000000     3.558000000   -10.266000000
H    -1.034000000     3.913000000    -8.795000000
O    -5.995000000     0.522000000    -5.936000000
H    -5.154000000     0.793000000    -5.567000000
H    -6.408000000     1.339000000    -6.217000000
O     0.195000000    -0.085000000    -8.213000000
H     0.638000000     0.667000000    -8.605000000
H    -0.292000000     0.281000000    -7.476000000
O    -3.658000000     1.198000000    -4.838000000
H    -3.022000000     1.578000000    -4.233000000
H    -3.188000000     1.132000000    -5.670000000
O     4.265000000     1.994000000    -7.752000000
H     4.660000000     1.123000000    -7.742000000
H     3.388000000     1.864000000    -7.390000000
O     3.156000000     3.021000000    -4.668000000
H     2.470000000     2.908000000    -4.011000000
H     3.325000000     3.963000000    -4.678000000
O     0.190000000     6.242000000    -7.471000000
H     0.419000000     5.579000000    -6.820000000
H     0.843000000     6.135000000    -8.162000000
