215
-1464.16707
C     4.709000000    -0.342000000    -2.234000000
H     4.323000000    -1.357000000    -2.270000000
C     4.820000000     0.364000000    -1.036000000
C     5.370000000     1.657000000    -1.046000000
H     5.689000000     2.093000000    -0.103000000
C     4.505000000    -0.341000000     0.304000000
O     4.844000000    -1.742000000     0.246000000
H     3.418000000    -0.202000000     0.394000000
O     5.063000000     0.313000000     1.459000000
C     4.246000000     0.381000000     2.605000000
C     3.696000000     1.631000000     2.674000000
H     3.968000000     2.497000000     2.077000000
C     2.602000000     1.850000000     3.503000000
O     1.948000000     2.990000000     3.387000000
C     2.258000000     0.849000000     4.453000000
C     1.080000000     1.208000000     5.328000000
H     1.130000000     0.634000000     6.256000000
C    -0.333000000     0.872000000     4.807000000
C    -0.924000000    -0.367000000     4.907000000
H    -0.348000000    -1.150000000     5.394000000
H     1.316000000     2.209000000     5.693000000
C     2.875000000    -0.375000000     4.402000000
H     2.431000000    -1.159000000     5.010000000
C     3.802000000    -0.675000000     3.415000000
C     4.355000000    -2.058000000     3.158000000
H     4.289000000    -2.610000000     4.098000000
H     5.422000000    -2.002000000     2.930000000
C     3.563000000    -2.793000000     2.081000000
C     2.486000000    -3.528000000     2.475000000
H     2.310000000    -3.685000000     3.536000000
C     3.837000000    -2.577000000     0.737000000
C     2.998000000    -3.048000000    -0.252000000
H     3.244000000    -2.771000000    -1.274000000
C     1.852000000    -3.815000000     0.117000000
O     0.975000000    -4.305000000    -0.795000000
C    -0.303000000    -3.722000000    -0.755000000
C    -0.780000000    -3.460000000    -2.200000000
C    -2.092000000    -3.646000000    -2.624000000
H    -2.699000000    -4.227000000    -1.935000000
C     0.119000000    -2.824000000    -3.134000000
H     1.163000000    -2.670000000    -2.876000000
O    -1.127000000    -4.716000000    -0.112000000
H    -0.270000000    -2.777000000    -0.194000000
C     1.625000000    -4.078000000     1.546000000
C     0.542000000    -5.040000000     2.099000000
H     0.828000000    -5.451000000     3.069000000
H     0.529000000    -5.887000000     1.410000000
C    -0.821000000    -4.382000000     2.222000000
C    -1.125000000    -3.649000000     3.357000000
H    -0.378000000    -3.542000000     4.139000000
C    -1.606000000    -4.274000000     1.102000000
C    -2.788000000    -3.641000000     1.131000000
H    -3.435000000    -3.764000000     0.267000000
C    -3.150000000    -2.925000000     2.268000000
O    -4.263000000    -2.122000000     2.232000000
C    -4.011000000    -0.757000000     1.860000000
C    -4.870000000    -0.234000000     0.732000000
C    -5.511000000    -1.189000000    -0.099000000
H    -5.334000000    -2.252000000     0.044000000
C    -5.110000000     1.161000000     0.585000000
H    -4.628000000     1.861000000     1.263000000
O    -4.096000000    -0.015000000     3.140000000
H    -2.997000000    -0.670000000     1.442000000
C    -2.330000000    -2.985000000     3.415000000
C    -2.691000000    -2.147000000     4.646000000
H    -2.188000000    -2.677000000     5.458000000
H    -3.771000000    -2.144000000     4.809000000
C    -2.154000000    -0.727000000     4.420000000
C    -2.841000000     0.227000000     3.697000000
C    -2.260000000     1.458000000     3.470000000
H    -2.650000000     2.184000000     2.761000000
C    -0.989000000     1.789000000     3.963000000
O    -0.435000000     3.007000000     3.647000000
C     0.705000000     2.988000000     2.685000000
H     0.609000000     2.039000000     2.136000000
C     0.613000000     4.088000000     1.582000000
C     1.714000000     4.846000000     1.205000000
H     2.574000000     4.925000000     1.865000000
C    -0.550000000     4.107000000     0.782000000
H    -1.332000000     3.418000000     1.088000000
C    -0.643000000     5.060000000    -0.290000000
O    -1.751000000     5.005000000    -1.051000000
C     0.441000000     5.815000000    -0.689000000
H     0.379000000     6.525000000    -1.510000000
C     1.659000000     5.656000000     0.066000000
O     2.747000000     6.474000000    -0.161000000
C     3.964000000     5.920000000    -0.333000000
C     4.316000000     4.945000000    -1.234000000
H     3.458000000     4.542000000    -1.767000000
C     4.977000000     6.607000000     0.336000000
H     4.739000000     7.395000000     1.045000000
C     6.356000000     6.335000000     0.170000000
H     7.187000000     6.797000000     0.697000000
C     6.719000000     5.325000000    -0.744000000
H     7.736000000     5.017000000    -0.975000000
C     5.692000000     4.615000000    -1.389000000
O     5.978000000     3.620000000    -2.262000000
C     5.495000000     2.310000000    -2.267000000
C     5.356000000     1.605000000    -3.453000000
H     5.754000000     2.045000000    -4.364000000
C     4.954000000     0.279000000    -3.481000000
O     4.985000000    -0.443000000    -4.635000000
C     4.147000000    -1.484000000    -4.905000000
C     2.817000000    -1.219000000    -5.092000000
H     2.533000000    -0.183000000    -4.923000000
C     4.626000000    -2.767000000    -5.203000000
H     5.702000000    -2.903000000    -5.125000000
C     3.727000000    -3.787000000    -5.673000000
H     4.044000000    -4.801000000    -5.903000000
C     2.332000000    -3.445000000    -5.756000000
H     1.565000000    -4.199000000    -5.917000000
C     1.905000000    -2.159000000    -5.494000000
O     0.569000000    -1.818000000    -5.328000000
C    -0.298000000    -2.389000000    -4.401000000
C    -1.641000000    -2.679000000    -4.801000000
H    -1.983000000    -2.499000000    -5.817000000
C    -2.465000000    -3.300000000    -3.904000000
O    -3.720000000    -3.681000000    -4.434000000
C    -4.939000000    -3.540000000    -3.857000000
C    -5.381000000    -2.483000000    -3.068000000
H    -4.660000000    -1.717000000    -2.795000000
C    -5.895000000    -4.542000000    -4.222000000
H    -5.541000000    -5.359000000    -4.844000000
C    -7.149000000    -4.610000000    -3.560000000
H    -7.854000000    -5.406000000    -3.783000000
C    -7.549000000    -3.560000000    -2.728000000
H    -8.541000000    -3.522000000    -2.285000000
C    -6.694000000    -2.479000000    -2.528000000
O    -7.172000000    -1.496000000    -1.708000000
C    -6.390000000    -0.640000000    -1.100000000
C    -6.709000000     0.743000000    -1.164000000
H    -7.419000000     0.971000000    -1.955000000
C    -6.036000000     1.641000000    -0.367000000
O    -6.195000000     3.018000000    -0.612000000
C    -5.261000000     4.024000000    -0.276000000
C    -5.547000000     4.888000000     0.764000000
H    -6.499000000     4.889000000     1.289000000
C    -4.599000000     5.844000000     1.145000000
H    -4.788000000     6.285000000     2.120000000
C    -3.345000000     5.772000000     0.568000000
H    -2.591000000     6.354000000     1.091000000
C    -3.029000000     5.028000000    -0.516000000
C    -3.994000000     4.170000000    -0.976000000
H    -3.765000000     3.453000000    -1.760000000
C    -1.549000000     0.361000000    -1.834000000
H    -2.397000000     0.224000000    -2.500000000
C    -1.418000000    -0.364000000    -0.576000000
H    -2.195000000    -1.097000000    -0.376000000
C    -0.250000000    -0.228000000     0.212000000
H    -0.161000000    -0.793000000     1.106000000
C     0.716000000     0.733000000    -0.147000000
H     1.556000000     0.856000000     0.531000000
C     0.501000000     1.499000000    -1.344000000
H     1.371000000     2.057000000    -1.681000000
C    -0.583000000     1.328000000    -2.164000000
C    -0.787000000     2.217000000    -3.327000000
O     0.119000000     2.898000000    -3.796000000
O    -1.844000000     2.135000000    -3.892000000
O     3.064000000     6.802000000    -4.002000000
H     3.099000000     5.845000000    -4.002000000
H     3.259000000     7.049000000    -4.906000000
O     1.578000000     2.694000000    -6.454000000
H     0.671000000     2.617000000    -6.157000000
H     2.065000000     2.951000000    -5.671000000
O     0.836000000     2.656000000    -9.197000000
H     0.844000000     1.717000000    -9.385000000
H     1.096000000     2.717000000    -8.278000000
O     4.498000000     4.259000000    -5.787000000
H     3.933000000     3.817000000    -5.153000000
H     4.926000000     3.547000000    -6.262000000
O    -2.871000000     4.627000000    -4.085000000
H    -2.633000000     4.915000000    -3.203000000
H    -2.443000000     3.776000000    -4.182000000
O    -3.158000000     8.126000000    -2.927000000
H    -3.457000000     7.943000000    -3.818000000
H    -2.205000000     8.047000000    -2.972000000
O    -3.927000000     0.952000000    -8.190000000
H    -3.049000000     0.984000000    -7.810000000
H    -4.387000000     1.692000000    -7.792000000
O    -0.016000000     7.744000000    -3.916000000
H    -0.175000000     7.931000000    -4.841000000
H     0.932000000     7.827000000    -3.815000000
O    -4.021000000     6.855000000    -5.174000000
H    -3.878000000     6.012000000    -4.743000000
H    -4.170000000     6.632000000    -6.093000000
O    -4.039000000     5.872000000    -7.693000000
H    -3.222000000     5.386000000    -7.589000000
H    -3.958000000     6.298000000    -8.547000000
O     0.555000000     5.267000000    -4.743000000
H     0.359000000     4.368000000    -4.478000000
H     0.465000000     5.778000000    -3.939000000
O     0.689000000     5.669000000    -7.387000000
H     1.519000000     5.350000000    -7.741000000
H     0.737000000     5.472000000    -6.451000000
O    -1.811000000     4.150000000    -6.794000000
H    -1.004000000     4.551000000    -7.117000000
H    -2.035000000     4.658000000    -6.014000000
O    -6.598000000     4.665000000    -3.084000000
H    -6.236000000     5.537000000    -3.237000000
H    -6.161000000     4.360000000    -2.288000000
O    -1.700000000     1.549000000    -6.614000000
H    -1.747000000     1.385000000    -5.673000000
H    -1.684000000     2.503000000    -6.691000000
O    -0.564000000    -0.134000000    -8.838000000
H    -1.315000000    -0.726000000    -8.840000000
H    -0.872000000     0.642000000    -8.369000000
O    -4.378000000     1.537000000    -4.120000000
H    -4.706000000     2.426000000    -4.257000000
H    -3.428000000     1.639000000    -4.063000000
O     3.886000000     0.675000000    -8.450000000
H     4.408000000     1.475000000    -8.516000000
H     3.195000000     0.891000000    -7.824000000
O     2.825000000     3.113000000    -3.955000000
H     1.944000000     2.970000000    -3.610000000
H     3.350000000     2.410000000    -3.571000000
