215
-1456.57954
C     4.239000000    -0.033000000    -1.963000000
H     3.618000000    -0.917000000    -2.083000000
C     4.719000000     0.376000000    -0.737000000
C     5.324000000     1.615000000    -0.635000000
H     5.738000000     2.031000000     0.280000000
C     4.221000000    -0.388000000     0.512000000
O     4.519000000    -1.812000000     0.366000000
H     3.139000000    -0.191000000     0.546000000
O     4.756000000     0.062000000     1.770000000
C     3.951000000     0.294000000     2.821000000
C     3.462000000     1.533000000     2.949000000
H     3.818000000     2.414000000     2.421000000
C     2.492000000     1.660000000     3.853000000
O     1.820000000     2.884000000     3.710000000
C     1.958000000     0.599000000     4.682000000
C     0.762000000     0.740000000     5.540000000
H     0.929000000     0.073000000     6.388000000
C    -0.569000000     0.586000000     4.744000000
C    -1.228000000    -0.636000000     4.844000000
H    -0.774000000    -1.419000000     5.446000000
H     0.766000000     1.738000000     5.983000000
C     2.476000000    -0.684000000     4.489000000
H     2.007000000    -1.538000000     4.972000000
C     3.446000000    -0.830000000     3.561000000
C     3.898000000    -2.239000000     3.211000000
H     3.868000000    -2.856000000     4.110000000
H     4.918000000    -2.208000000     2.821000000
C     3.083000000    -2.823000000     2.089000000
C     1.999000000    -3.636000000     2.412000000
H     1.767000000    -3.869000000     3.448000000
C     3.492000000    -2.653000000     0.738000000
C     2.777000000    -3.274000000    -0.262000000
H     3.178000000    -3.197000000    -1.269000000
C     1.663000000    -4.012000000     0.111000000
O     0.937000000    -4.484000000    -0.959000000
C    -0.305000000    -3.767000000    -1.107000000
C    -0.616000000    -3.562000000    -2.618000000
C    -1.914000000    -3.427000000    -3.109000000
H    -2.754000000    -3.566000000    -2.432000000
C     0.445000000    -3.572000000    -3.529000000
H     1.465000000    -3.610000000    -3.154000000
O    -1.436000000    -4.468000000    -0.542000000
H    -0.204000000    -2.755000000    -0.687000000
C     1.273000000    -4.234000000     1.390000000
C     0.111000000    -5.073000000     1.806000000
H     0.232000000    -5.494000000     2.807000000
H     0.014000000    -5.915000000     1.118000000
C    -1.193000000    -4.376000000     1.785000000
C    -1.674000000    -3.857000000     2.992000000
H    -1.148000000    -4.060000000     3.921000000
C    -1.966000000    -4.160000000     0.666000000
C    -3.197000000    -3.566000000     0.753000000
H    -3.768000000    -3.418000000    -0.159000000
C    -3.548000000    -2.896000000     1.900000000
O    -4.521000000    -1.863000000     1.847000000
C    -4.118000000    -0.508000000     1.705000000
C    -5.035000000     0.019000000     0.654000000
C    -5.461000000    -0.778000000    -0.389000000
H    -5.280000000    -1.846000000    -0.291000000
C    -5.208000000     1.388000000     0.511000000
H    -4.819000000     2.019000000     1.306000000
O    -4.246000000     0.202000000     2.935000000
H    -3.074000000    -0.510000000     1.358000000
C    -2.804000000    -3.042000000     3.056000000
C    -3.069000000    -2.230000000     4.260000000
H    -2.556000000    -2.780000000     5.052000000
H    -4.133000000    -2.151000000     4.497000000
C    -2.452000000    -0.828000000     4.177000000
C    -3.085000000     0.310000000     3.620000000
C    -2.479000000     1.548000000     3.489000000
H    -2.980000000     2.264000000     2.842000000
C    -1.151000000     1.655000000     3.925000000
O    -0.528000000     2.861000000     3.722000000
C     0.636000000     2.799000000     2.907000000
H     0.730000000     1.872000000     2.323000000
C     0.697000000     3.836000000     1.796000000
C     1.731000000     4.784000000     1.709000000
H     2.583000000     4.776000000     2.384000000
C    -0.389000000     3.925000000     0.915000000
H    -1.247000000     3.269000000     1.040000000
C    -0.417000000     4.860000000    -0.134000000
O    -1.478000000     4.809000000    -0.971000000
C     0.674000000     5.681000000    -0.337000000
H     0.652000000     6.332000000    -1.207000000
C     1.735000000     5.656000000     0.605000000
O     2.774000000     6.543000000     0.410000000
C     4.049000000     6.154000000     0.318000000
C     4.307000000     5.161000000    -0.599000000
H     3.500000000     4.744000000    -1.195000000
C     4.993000000     6.651000000     1.223000000
H     4.704000000     7.345000000     2.008000000
C     6.269000000     6.112000000     1.143000000
H     7.139000000     6.400000000     1.727000000
C     6.556000000     5.117000000     0.271000000
H     7.600000000     4.819000000     0.203000000
C     5.579000000     4.570000000    -0.540000000
O     5.944000000     3.722000000    -1.590000000
C     5.481000000     2.461000000    -1.738000000
C     5.031000000     1.994000000    -2.972000000
H     5.163000000     2.618000000    -3.851000000
C     4.540000000     0.712000000    -3.126000000
O     4.165000000     0.274000000    -4.420000000
C     4.009000000    -1.043000000    -4.694000000
C     2.774000000    -1.496000000    -5.098000000
H     1.938000000    -0.801000000    -5.099000000
C     5.137000000    -1.942000000    -4.638000000
H     6.088000000    -1.649000000    -4.201000000
C     4.920000000    -3.266000000    -4.967000000
H     5.768000000    -3.940000000    -4.880000000
C     3.692000000    -3.720000000    -5.424000000
H     3.770000000    -4.771000000    -5.689000000
C     2.612000000    -2.832000000    -5.436000000
O     1.432000000    -3.399000000    -5.806000000
C     0.286000000    -3.466000000    -4.933000000
C    -1.030000000    -3.407000000    -5.413000000
H    -1.152000000    -3.347000000    -6.491000000
C    -2.091000000    -3.272000000    -4.474000000
O    -3.381000000    -3.206000000    -4.949000000
C    -4.468000000    -3.304000000    -4.194000000
C    -4.941000000    -2.156000000    -3.566000000
H    -4.474000000    -1.182000000    -3.691000000
C    -5.147000000    -4.472000000    -4.073000000
H    -4.788000000    -5.374000000    -4.562000000
C    -6.456000000    -4.553000000    -3.567000000
H    -7.008000000    -5.490000000    -3.565000000
C    -6.925000000    -3.378000000    -2.902000000
H    -7.936000000    -3.360000000    -2.503000000
C    -6.134000000    -2.201000000    -2.886000000
O    -6.769000000    -1.094000000    -2.467000000
C    -6.202000000    -0.298000000    -1.483000000
C    -6.354000000     1.083000000    -1.616000000
H    -6.959000000     1.455000000    -2.440000000
C    -5.884000000     1.919000000    -0.610000000
O    -6.039000000     3.274000000    -0.614000000
C    -5.020000000     4.144000000    -0.443000000
C    -5.418000000     5.385000000     0.063000000
H    -6.473000000     5.488000000     0.305000000
C    -4.522000000     6.471000000     0.092000000
H    -4.935000000     7.419000000     0.428000000
C    -3.158000000     6.173000000    -0.136000000
H    -2.439000000     6.980000000    -0.254000000
C    -2.833000000     4.942000000    -0.596000000
C    -3.673000000     3.883000000    -0.730000000
H    -3.447000000     2.888000000    -1.105000000
C    -1.135000000     0.836000000    -2.181000000
H    -2.038000000     0.523000000    -2.698000000
C    -0.909000000     0.214000000    -0.910000000
H    -1.761000000    -0.392000000    -0.614000000
C     0.240000000     0.552000000    -0.152000000
H     0.394000000     0.013000000     0.811000000
C     1.132000000     1.497000000    -0.691000000
H     2.040000000     1.748000000    -0.148000000
C     0.902000000     2.034000000    -1.942000000
H     1.726000000     2.636000000    -2.316000000
C    -0.238000000     1.726000000    -2.656000000
C    -0.610000000     2.469000000    -3.903000000
O     0.134000000     3.325000000    -4.360000000
O    -1.704000000     2.324000000    -4.398000000
O     1.912000000     7.773000000    -4.820000000
H     1.397000000     7.536000000    -5.592000000
H     1.953000000     6.968000000    -4.304000000
O     1.541000000     2.468000000    -6.490000000
H     1.110000000     1.648000000    -6.732000000
H     1.082000000     2.755000000    -5.700000000
O    -0.381000000     3.642000000    -8.801000000
H    -0.644000000     2.722000000    -8.810000000
H    -0.258000000     3.847000000    -7.874000000
O     4.993000000     4.856000000    -4.853000000
H     5.907000000     4.818000000    -5.134000000
H     4.959000000     5.599000000    -4.250000000
O    -2.263000000     5.274000000    -3.809000000
H    -1.704000000     5.723000000    -3.175000000
H    -1.864000000     4.409000000    -3.910000000
O    -3.839000000     1.196000000    -9.092000000
H    -4.744000000     1.464000000    -9.250000000
H    -3.545000000     1.757000000    -8.375000000
O    -4.953000000     6.394000000    -4.011000000
H    -5.106000000     5.760000000    -4.712000000
H    -4.067000000     6.203000000    -3.704000000
O    -3.926000000     7.543000000    -6.954000000
H    -4.820000000     7.460000000    -7.286000000
H    -3.843000000     6.840000000    -6.310000000
O    -0.451000000     4.798000000    -6.288000000
H    -0.286000000     4.221000000    -5.542000000
H    -1.186000000     5.344000000    -6.011000000
O     0.178000000     7.121000000    -7.183000000
H     0.683000000     6.851000000    -7.950000000
H    -0.088000000     6.300000000    -6.770000000
O    -4.673000000     0.811000000    -5.591000000
H    -4.730000000     1.261000000    -4.748000000
H    -3.826000000     1.077000000    -5.948000000
O    -2.577000000     2.425000000    -6.877000000
H    -2.160000000     2.294000000    -6.025000000
H    -2.336000000     3.317000000    -7.126000000
O    -0.281000000     0.450000000    -6.889000000
H    -1.100000000     0.285000000    -6.421000000
H    -0.101000000    -0.368000000    -7.353000000
O    -4.235000000     2.679000000    -3.582000000
H    -4.210000000     3.337000000    -2.887000000
H    -3.361000000     2.709000000    -3.972000000
O    -2.663000000    -1.180000000    -6.986000000
H    -3.320000000    -1.431000000    -6.337000000
H    -3.163000000    -1.042000000    -7.791000000
O     4.159000000     2.012000000    -7.899000000
H     4.586000000     2.814000000    -7.599000000
H     3.232000000     2.145000000    -7.701000000
O     2.329000000     5.212000000    -3.763000000
H     3.125000000     5.129000000    -4.288000000
H     1.920000000     4.347000000    -3.811000000
O    -4.955000000     4.409000000    -5.994000000
H    -5.047000000     3.458000000    -6.047000000
H    -4.794000000     4.684000000    -6.897000000
O     4.264000000     4.934000000    -7.524000000
H     3.346000000     5.197000000    -7.593000000
H     4.479000000     5.056000000    -6.600000000
