215
-1467.85195
C     4.167000000    -0.338000000    -2.352000000
H     3.955000000    -1.394000000    -2.202000000
C     4.247000000     0.394000000    -1.214000000
C     4.366000000     1.765000000    -1.306000000
H     4.503000000     2.375000000    -0.417000000
C     4.059000000    -0.276000000     0.144000000
O     4.581000000    -1.633000000     0.112000000
H     2.989000000    -0.307000000     0.401000000
O     4.713000000     0.410000000     1.221000000
C     4.007000000     0.675000000     2.373000000
C     3.423000000     1.930000000     2.508000000
H     3.743000000     2.646000000     1.755000000
C     2.492000000     2.164000000     3.547000000
O     1.705000000     3.333000000     3.513000000
C     2.083000000     1.160000000     4.435000000
C     0.935000000     1.426000000     5.442000000
H     1.146000000     0.887000000     6.367000000
C    -0.486000000     1.127000000     4.832000000
C    -1.107000000    -0.124000000     5.022000000
H    -0.674000000    -0.870000000     5.683000000
H     0.971000000     2.472000000     5.753000000
C     2.669000000    -0.096000000     4.228000000
H     2.188000000    -0.864000000     4.828000000
C     3.663000000    -0.294000000     3.286000000
C     4.323000000    -1.701000000     3.168000000
H     4.328000000    -2.178000000     4.150000000
H     5.365000000    -1.556000000     2.873000000
C     3.637000000    -2.607000000     2.145000000
C     2.545000000    -3.335000000     2.653000000
H     2.298000000    -3.316000000     3.711000000
C     3.862000000    -2.600000000     0.767000000
C     3.100000000    -3.363000000    -0.071000000
H     3.156000000    -3.284000000    -1.154000000
C     2.045000000    -4.103000000     0.385000000
O     1.246000000    -4.792000000    -0.543000000
C    -0.022000000    -4.241000000    -0.927000000
C    -0.314000000    -4.414000000    -2.429000000
C    -1.569000000    -4.157000000    -2.934000000
H    -2.373000000    -3.927000000    -2.239000000
C     0.738000000    -4.559000000    -3.362000000
H     1.755000000    -4.632000000    -2.985000000
O    -1.079000000    -4.866000000    -0.151000000
H    -0.022000000    -3.156000000    -0.746000000
C     1.728000000    -4.034000000     1.791000000
C     0.564000000    -4.774000000     2.416000000
H     0.711000000    -5.043000000     3.464000000
H     0.555000000    -5.746000000     1.917000000
C    -0.796000000    -4.123000000     2.210000000
C    -1.208000000    -3.444000000     3.355000000
H    -0.667000000    -3.519000000     4.294000000
C    -1.518000000    -4.220000000     1.001000000
C    -2.738000000    -3.612000000     1.020000000
H    -3.286000000    -3.487000000     0.090000000
C    -3.196000000    -2.808000000     2.074000000
O    -4.196000000    -1.921000000     1.956000000
C    -3.869000000    -0.532000000     1.623000000
C    -4.753000000     0.004000000     0.494000000
C    -5.187000000    -0.838000000    -0.501000000
H    -5.003000000    -1.893000000    -0.319000000
C    -4.965000000     1.398000000     0.304000000
H    -4.700000000     2.079000000     1.108000000
O    -4.072000000     0.277000000     2.795000000
H    -2.821000000    -0.484000000     1.293000000
C    -2.374000000    -2.662000000     3.250000000
C    -2.904000000    -1.801000000     4.394000000
H    -2.618000000    -2.242000000     5.352000000
H    -3.982000000    -1.798000000     4.570000000
C    -2.301000000    -0.390000000     4.333000000
C    -2.953000000     0.541000000     3.528000000
C    -2.337000000     1.814000000     3.317000000
H    -2.745000000     2.458000000     2.543000000
C    -1.133000000     2.124000000     4.014000000
O    -0.533000000     3.323000000     3.685000000
C     0.521000000     3.343000000     2.702000000
H     0.543000000     2.454000000     2.055000000
C     0.349000000     4.500000000     1.855000000
C     1.510000000     5.283000000     1.541000000
H     2.443000000     5.076000000     2.059000000
C    -0.836000000     4.813000000     1.263000000
H    -1.730000000     4.208000000     1.388000000
C    -0.907000000     5.851000000     0.302000000
O    -2.138000000     6.252000000    -0.258000000
C     0.216000000     6.573000000    -0.054000000
H     0.105000000     7.324000000    -0.831000000
C     1.433000000     6.249000000     0.557000000
O     2.573000000     6.895000000     0.157000000
C     3.739000000     6.297000000    -0.261000000
C     3.695000000     5.257000000    -1.171000000
H     2.839000000     5.044000000    -1.807000000
C     4.987000000     6.531000000     0.437000000
H     4.962000000     7.323000000     1.181000000
C     6.158000000     5.791000000     0.107000000
H     7.063000000     5.798000000     0.709000000
C     6.018000000     4.804000000    -0.838000000
H     6.822000000     4.090000000    -0.998000000
C     4.861000000     4.617000000    -1.558000000
O     4.726000000     3.753000000    -2.654000000
C     4.493000000     2.424000000    -2.585000000
C     4.341000000     1.677000000    -3.748000000
H     4.379000000     2.199000000    -4.701000000
C     4.112000000     0.307000000    -3.612000000
O     3.631000000    -0.337000000    -4.760000000
C     3.659000000    -1.704000000    -4.962000000
C     2.514000000    -2.455000000    -5.265000000
H     1.538000000    -1.979000000    -5.319000000
C     4.865000000    -2.375000000    -4.990000000
H     5.796000000    -1.828000000    -4.861000000
C     5.001000000    -3.775000000    -5.057000000
H     5.926000000    -4.307000000    -4.851000000
C     3.794000000    -4.518000000    -5.259000000
H     3.856000000    -5.603000000    -5.239000000
C     2.607000000    -3.857000000    -5.407000000
O     1.523000000    -4.662000000    -5.567000000
C     0.462000000    -4.594000000    -4.723000000
C    -0.844000000    -4.473000000    -5.186000000
H    -1.085000000    -4.467000000    -6.246000000
C    -1.898000000    -4.148000000    -4.258000000
O    -3.123000000    -3.644000000    -4.728000000
C    -4.274000000    -3.708000000    -3.941000000
C    -4.793000000    -2.496000000    -3.596000000
H    -4.161000000    -1.643000000    -3.829000000
C    -4.903000000    -4.924000000    -3.649000000
H    -4.502000000    -5.840000000    -4.073000000
C    -5.990000000    -4.916000000    -2.845000000
H    -6.521000000    -5.838000000    -2.620000000
C    -6.477000000    -3.716000000    -2.415000000
H    -7.440000000    -3.783000000    -1.915000000
C    -5.963000000    -2.488000000    -2.832000000
O    -6.557000000    -1.237000000    -2.534000000
C    -5.988000000    -0.341000000    -1.550000000
C    -6.190000000     0.994000000    -1.721000000
H    -6.856000000     1.235000000    -2.546000000
C    -5.588000000     1.874000000    -0.820000000
O    -5.718000000     3.188000000    -1.036000000
C    -5.126000000     4.132000000    -0.304000000
C    -5.912000000     4.619000000     0.753000000
H    -6.925000000     4.275000000     0.944000000
C    -5.333000000     5.718000000     1.498000000
H    -5.804000000     6.260000000     2.314000000
C    -4.101000000     6.292000000     1.043000000
H    -3.909000000     7.289000000     1.431000000
C    -3.321000000     5.684000000     0.063000000
C    -3.886000000     4.628000000    -0.626000000
H    -3.301000000     4.248000000    -1.459000000
C    -1.649000000    -0.133000000    -1.135000000
H    -2.365000000    -0.923000000    -1.345000000
C    -0.788000000    -0.436000000    -0.058000000
H    -1.083000000    -1.344000000     0.462000000
C     0.285000000     0.419000000     0.182000000
H     0.986000000     0.105000000     0.887000000
C     0.480000000     1.581000000    -0.543000000
H     1.327000000     2.218000000    -0.302000000
C    -0.545000000     1.950000000    -1.527000000
H    -0.422000000     2.905000000    -2.032000000
C    -1.600000000     1.120000000    -1.791000000
C    -2.608000000     1.546000000    -2.865000000
O    -2.395000000     2.513000000    -3.509000000
O    -3.507000000     0.810000000    -3.206000000
O    -0.247000000     2.782000000    -5.098000000
H     0.176000000     2.001000000    -5.453000000
H    -1.148000000     2.509000000    -4.924000000
O     0.050000000     3.828000000    -7.748000000
H    -0.683000000     3.422000000    -8.210000000
H    -0.076000000     3.579000000    -6.832000000
O    -1.825000000     5.264000000    -4.324000000
H    -0.919000000     5.464000000    -4.558000000
H    -1.828000000     4.319000000    -4.168000000
O    -2.819000000     8.195000000    -2.183000000
H    -2.575000000     7.509000000    -1.561000000
H    -3.375000000     7.751000000    -2.823000000
O    -7.929000000     1.752000000    -6.081000000
H    -7.637000000     0.879000000    -5.818000000
H    -8.761000000     1.600000000    -6.531000000
O    -5.200000000     0.431000000    -8.836000000
H    -6.148000000     0.311000000    -8.890000000
H    -5.088000000     1.234000000    -8.327000000
O     0.667000000     6.989000000    -4.141000000
H     0.422000000     7.765000000    -4.645000000
H     1.391000000     7.281000000    -3.587000000
O    -4.166000000     6.563000000    -3.706000000
H    -4.818000000     6.050000000    -4.183000000
H    -3.395000000     5.996000000    -3.671000000
O    -3.560000000     5.280000000    -6.695000000
H    -3.723000000     4.345000000    -6.572000000
H    -3.128000000     5.556000000    -5.886000000
O    -5.870000000     2.768000000    -7.417000000
H    -6.481000000     2.252000000    -6.891000000
H    -6.431000000     3.305000000    -7.977000000
O    -7.082000000    -0.609000000    -5.360000000
H    -6.753000000    -0.752000000    -4.473000000
H    -6.613000000    -1.250000000    -5.895000000
O    -2.425000000    -0.122000000    -5.756000000
H    -2.904000000     0.645000000    -6.073000000
H    -2.674000000    -0.195000000    -4.835000000
O    -3.330000000     2.389000000    -6.015000000
H    -3.254000000     2.351000000    -5.062000000
H    -4.257000000     2.568000000    -6.174000000
O    -2.056000000     2.407000000    -8.666000000
H    -2.539000000     2.762000000    -9.412000000
H    -2.735000000     2.146000000    -8.043000000
O     0.348000000     0.629000000    -6.384000000
H    -0.489000000     0.223000000    -6.158000000
H     0.516000000     0.347000000    -7.283000000
O    -5.175000000     2.995000000    -3.864000000
H    -5.447000000     3.263000000    -2.986000000
H    -4.738000000     2.153000000    -3.733000000
O    -2.910000000    -1.505000000    -8.034000000
H    -3.800000000    -1.232000000    -8.257000000
H    -2.801000000    -1.244000000    -7.120000000
O     1.884000000     4.592000000    -4.177000000
H     1.280000000     4.032000000    -4.665000000
H     1.401000000     5.408000000    -4.046000000
O    -5.966000000     5.268000000    -5.338000000
H    -5.828000000     4.421000000    -4.914000000
H    -5.834000000     5.093000000    -6.270000000
