215
-1449.78228
C     4.119000000    -0.017000000    -2.008000000
H     3.530000000    -0.930000000    -1.995000000
C     4.413000000     0.588000000    -0.812000000
C     4.685000000     1.962000000    -0.803000000
H     4.887000000     2.485000000     0.128000000
C     4.175000000    -0.180000000     0.550000000
O     4.579000000    -1.584000000     0.482000000
H     3.087000000    -0.214000000     0.707000000
O     4.737000000     0.536000000     1.725000000
C     3.937000000     0.656000000     2.821000000
C     3.286000000     1.860000000     2.954000000
H     3.590000000     2.705000000     2.341000000
C     2.212000000     1.989000000     3.795000000
O     1.461000000     3.162000000     3.693000000
C     1.796000000     0.912000000     4.586000000
C     0.543000000     1.009000000     5.437000000
H     0.705000000     0.252000000     6.208000000
C    -0.802000000     0.795000000     4.753000000
C    -1.348000000    -0.516000000     4.835000000
H    -0.808000000    -1.233000000     5.448000000
H     0.520000000     2.036000000     5.809000000
C     2.468000000    -0.289000000     4.492000000
H     2.164000000    -1.183000000     5.031000000
C     3.551000000    -0.401000000     3.597000000
C     4.033000000    -1.821000000     3.333000000
H     4.004000000    -2.434000000     4.236000000
H     5.077000000    -1.845000000     3.014000000
C     3.214000000    -2.521000000     2.273000000
C     2.189000000    -3.387000000     2.654000000
H     1.811000000    -3.446000000     3.672000000
C     3.692000000    -2.511000000     0.964000000
C     3.122000000    -3.318000000     0.024000000
H     3.535000000    -3.275000000    -0.981000000
C     2.022000000    -4.060000000     0.346000000
O     1.282000000    -4.672000000    -0.634000000
C     0.031000000    -4.093000000    -1.056000000
C    -0.154000000    -4.282000000    -2.559000000
C    -1.396000000    -4.199000000    -3.116000000
H    -2.254000000    -4.187000000    -2.450000000
C     0.946000000    -4.266000000    -3.333000000
H     1.915000000    -4.101000000    -2.868000000
O    -1.090000000    -4.868000000    -0.368000000
H    -0.035000000    -3.027000000    -0.793000000
C     1.663000000    -4.231000000     1.633000000
C     0.462000000    -5.037000000     2.070000000
H     0.663000000    -5.250000000     3.122000000
H     0.312000000    -5.958000000     1.503000000
C    -0.874000000    -4.296000000     1.958000000
C    -1.429000000    -3.674000000     3.098000000
H    -0.920000000    -3.752000000     4.056000000
C    -1.562000000    -4.279000000     0.754000000
C    -2.747000000    -3.546000000     0.622000000
H    -3.187000000    -3.506000000    -0.372000000
C    -3.264000000    -2.873000000     1.742000000
O    -4.322000000    -2.018000000     1.436000000
C    -3.996000000    -0.623000000     1.237000000
C    -4.801000000    -0.023000000     0.107000000
C    -5.039000000    -0.822000000    -1.025000000
H    -4.724000000    -1.860000000    -0.961000000
C    -5.026000000     1.358000000     0.112000000
H    -4.798000000     1.997000000     0.960000000
O    -4.217000000     0.015000000     2.546000000
H    -2.941000000    -0.540000000     0.936000000
C    -2.601000000    -2.945000000     3.019000000
C    -3.105000000    -2.193000000     4.156000000
H    -2.708000000    -2.701000000     5.037000000
H    -4.179000000    -2.323000000     4.306000000
C    -2.513000000    -0.803000000     4.169000000
C    -3.095000000     0.209000000     3.371000000
C    -2.654000000     1.556000000     3.339000000
H    -3.153000000     2.366000000     2.812000000
C    -1.489000000     1.832000000     4.089000000
O    -0.931000000     3.045000000     3.884000000
C     0.202000000     3.083000000     2.922000000
H     0.167000000     2.215000000     2.247000000
C     0.147000000     4.271000000     1.931000000
C     1.296000000     5.009000000     1.618000000
H     2.216000000     4.922000000     2.191000000
C    -0.988000000     4.491000000     1.226000000
H    -1.830000000     3.806000000     1.285000000
C    -1.025000000     5.404000000     0.197000000
O    -2.136000000     5.583000000    -0.571000000
C     0.100000000     6.212000000    -0.070000000
H     0.078000000     6.962000000    -0.857000000
C     1.277000000     5.931000000     0.593000000
O     2.378000000     6.706000000     0.414000000
C     3.613000000     6.163000000     0.197000000
C     3.803000000     5.310000000    -0.917000000
H     3.087000000     4.854000000    -1.596000000
C     4.687000000     6.568000000     1.014000000
H     4.464000000     7.334000000     1.752000000
C     6.003000000     6.213000000     0.767000000
H     6.820000000     6.601000000     1.370000000
C     6.193000000     5.220000000    -0.247000000
H     7.179000000     4.818000000    -0.470000000
C     5.145000000     4.777000000    -1.099000000
O     5.402000000     3.888000000    -2.125000000
C     4.964000000     2.542000000    -2.057000000
C     4.735000000     1.904000000    -3.279000000
H     4.760000000     2.529000000    -4.167000000
C     4.335000000     0.590000000    -3.231000000
O     3.965000000     0.001000000    -4.389000000
C     4.081000000    -1.353000000    -4.678000000
C     2.924000000    -2.055000000    -4.987000000
H     1.997000000    -1.490000000    -5.036000000
C     5.295000000    -2.070000000    -4.584000000
H     6.235000000    -1.572000000    -4.365000000
C     5.380000000    -3.424000000    -4.864000000
H     6.370000000    -3.865000000    -4.779000000
C     4.169000000    -4.105000000    -5.144000000
H     4.159000000    -5.168000000    -5.371000000
C     2.943000000    -3.414000000    -5.238000000
O     1.821000000    -4.161000000    -5.557000000
C     0.736000000    -4.307000000    -4.741000000
C    -0.553000000    -4.289000000    -5.370000000
H    -0.637000000    -4.126000000    -6.441000000
C    -1.586000000    -4.144000000    -4.487000000
O    -2.764000000    -3.641000000    -5.032000000
C    -3.970000000    -3.571000000    -4.271000000
C    -4.464000000    -2.347000000    -3.881000000
H    -4.055000000    -1.356000000    -4.062000000
C    -4.662000000    -4.720000000    -3.936000000
H    -4.303000000    -5.671000000    -4.319000000
C    -5.849000000    -4.605000000    -3.152000000
H    -6.324000000    -5.521000000    -2.809000000
C    -6.409000000    -3.389000000    -2.867000000
H    -7.398000000    -3.330000000    -2.420000000
C    -5.747000000    -2.276000000    -3.319000000
O    -6.273000000    -1.066000000    -3.099000000
C    -5.660000000    -0.250000000    -2.157000000
C    -6.123000000     1.060000000    -2.081000000
H    -6.660000000     1.398000000    -2.963000000
C    -5.742000000     1.833000000    -0.984000000
O    -6.119000000     3.187000000    -1.072000000
C    -5.383000000     4.140000000    -0.442000000
C    -6.028000000     4.908000000     0.535000000
H    -7.090000000     4.716000000     0.669000000
C    -5.318000000     5.872000000     1.243000000
H    -5.766000000     6.503000000     2.006000000
C    -3.992000000     6.150000000     0.838000000
H    -3.402000000     6.909000000     1.345000000
C    -3.421000000     5.428000000    -0.188000000
C    -4.082000000     4.355000000    -0.797000000
H    -3.669000000     3.776000000    -1.618000000
C    -0.784000000     0.097000000    -1.694000000
H    -1.520000000    -0.473000000    -2.255000000
C    -0.451000000    -0.495000000    -0.431000000
H    -0.931000000    -1.410000000    -0.092000000
C     0.556000000     0.179000000     0.284000000
H     0.853000000    -0.280000000     1.243000000
C     1.115000000     1.361000000    -0.181000000
H     1.954000000     1.837000000     0.321000000
C     0.748000000     1.884000000    -1.392000000
H     1.202000000     2.793000000    -1.777000000
C    -0.213000000     1.291000000    -2.154000000
C    -0.674000000     1.966000000    -3.454000000
O    -0.063000000     2.965000000    -3.813000000
O    -1.625000000     1.639000000    -4.111000000
O     0.904000000     4.165000000    -5.985000000
H     0.711000000     3.796000000    -5.123000000
H     0.131000000     3.959000000    -6.512000000
O     0.534000000     4.963000000    -9.798000000
H     0.596000000     4.664000000   -10.705000000
H    -0.204000000     4.475000000    -9.435000000
O    -0.470000000     5.450000000    -3.067000000
H    -0.109000000     4.579000000    -3.234000000
H    -1.221000000     5.292000000    -2.495000000
O    -3.420000000     7.350000000    -3.667000000
H    -3.459000000     7.643000000    -4.578000000
H    -3.812000000     6.477000000    -3.680000000
O    -0.351000000     7.674000000    -6.846000000
H     0.191000000     8.443000000    -7.022000000
H    -0.406000000     7.633000000    -5.891000000
O    -4.941000000     5.019000000    -3.991000000
H    -4.565000000     4.139000000    -3.981000000
H    -5.608000000     4.986000000    -4.677000000
O    -4.015000000     5.807000000    -7.295000000
H    -3.968000000     5.087000000    -7.923000000
H    -4.891000000     5.737000000    -6.915000000
O    -4.464000000     1.322000000    -7.719000000
H    -5.409000000     1.359000000    -7.568000000
H    -4.256000000     2.160000000    -8.133000000
O    -2.098000000     0.044000000    -6.202000000
H    -2.685000000     0.685000000    -6.603000000
H    -1.800000000     0.463000000    -5.395000000
O    -1.172000000    -0.463000000    -8.924000000
H    -1.363000000    -0.336000000    -7.995000000
H    -1.345000000    -1.391000000    -9.080000000
O    -1.935000000     3.528000000    -6.259000000
H    -1.736000000     3.231000000    -5.371000000
H    -2.549000000     4.252000000    -6.137000000
O     1.262000000     7.377000000    -3.769000000
H     2.067000000     6.901000000    -3.972000000
H     0.636000000     6.695000000    -3.524000000
O    -1.744000000     3.201000000    -8.894000000
H    -2.634000000     3.326000000    -9.225000000
H    -1.831000000     3.267000000    -7.943000000
O     1.135000000     1.609000000    -6.439000000
H     1.385000000     2.445000000    -6.045000000
H     0.495000000     1.240000000    -5.830000000
O    -4.095000000     2.686000000    -4.474000000
H    -4.364000000     2.348000000    -5.328000000
H    -3.323000000     2.168000000    -4.244000000
O    -2.712000000    -3.303000000    -8.003000000
H    -3.456000000    -2.763000000    -8.269000000
H    -2.480000000    -2.978000000    -7.133000000
O     2.093000000     0.196000000    -8.627000000
H     1.742000000     0.667000000    -7.871000000
H     1.488000000    -0.535000000    -8.755000000
O     2.790000000     6.158000000    -6.089000000
H     2.177000000     5.425000000    -6.031000000
H     2.336000000     6.808000000    -6.626000000
O    -1.247000000     8.565000000    -2.741000000
H    -0.394000000     8.395000000    -3.140000000
H    -1.794000000     7.831000000    -3.022000000
