215
-1450.37981
C     4.532000000    -0.538000000    -2.122000000
H     4.036000000    -1.500000000    -2.220000000
C     4.847000000     0.036000000    -0.830000000
C     5.415000000     1.304000000    -0.735000000
H     5.574000000     1.841000000     0.197000000
C     4.287000000    -0.540000000     0.436000000
O     4.604000000    -1.932000000     0.369000000
H     3.194000000    -0.422000000     0.415000000
O     4.856000000     0.016000000     1.658000000
C     3.988000000     0.395000000     2.615000000
C     3.477000000     1.632000000     2.652000000
H     3.725000000     2.432000000     1.960000000
C     2.473000000     1.946000000     3.545000000
O     1.944000000     3.209000000     3.419000000
C     2.023000000     1.003000000     4.489000000
C     0.863000000     1.427000000     5.468000000
H     0.986000000     0.823000000     6.369000000
C    -0.564000000     1.278000000     4.912000000
C    -1.166000000     0.048000000     5.032000000
H    -0.673000000    -0.752000000     5.578000000
H     1.047000000     2.429000000     5.861000000
C     2.587000000    -0.294000000     4.491000000
H     2.190000000    -1.112000000     5.085000000
C     3.552000000    -0.591000000     3.503000000
C     4.006000000    -1.985000000     3.401000000
H     3.987000000    -2.464000000     4.382000000
H     5.050000000    -2.062000000     3.088000000
C     3.299000000    -2.726000000     2.292000000
C     2.314000000    -3.590000000     2.654000000
H     2.108000000    -3.718000000     3.714000000
C     3.649000000    -2.767000000     0.928000000
C     2.896000000    -3.465000000     0.043000000
H     3.143000000    -3.436000000    -1.015000000
C     1.815000000    -4.263000000     0.388000000
O     0.981000000    -4.937000000    -0.524000000
C    -0.350000000    -4.424000000    -0.815000000
C    -0.713000000    -4.384000000    -2.309000000
C    -1.977000000    -4.669000000    -2.832000000
H    -2.701000000    -4.979000000    -2.083000000
C     0.272000000    -3.800000000    -3.136000000
H     1.230000000    -3.552000000    -2.686000000
O    -1.452000000    -4.979000000    -0.012000000
H    -0.372000000    -3.356000000    -0.554000000
C     1.434000000    -4.252000000     1.751000000
C     0.259000000    -4.973000000     2.322000000
H     0.496000000    -5.216000000     3.360000000
H     0.223000000    -5.934000000     1.804000000
C    -0.970000000    -4.120000000     2.187000000
C    -1.271000000    -3.247000000     3.193000000
H    -0.669000000    -3.160000000     4.094000000
C    -1.761000000    -4.248000000     1.057000000
C    -2.851000000    -3.389000000     0.979000000
H    -3.462000000    -3.335000000     0.082000000
C    -3.267000000    -2.593000000     2.064000000
O    -4.309000000    -1.763000000     1.949000000
C    -3.952000000    -0.391000000     1.636000000
C    -4.945000000     0.140000000     0.564000000
C    -5.049000000    -0.519000000    -0.655000000
H    -4.530000000    -1.468000000    -0.769000000
C    -5.330000000     1.449000000     0.639000000
H    -5.080000000     2.107000000     1.467000000
O    -4.011000000     0.468000000     2.853000000
H    -2.947000000    -0.388000000     1.188000000
C    -2.456000000    -2.473000000     3.167000000
C    -2.872000000    -1.687000000     4.380000000
H    -2.590000000    -2.167000000     5.320000000
H    -3.957000000    -1.593000000     4.459000000
C    -2.289000000    -0.320000000     4.272000000
C    -2.935000000     0.724000000     3.530000000
C    -2.384000000     2.039000000     3.521000000
H    -2.859000000     2.840000000     2.959000000
C    -1.150000000     2.279000000     4.096000000
O    -0.441000000     3.378000000     3.763000000
C     0.599000000     3.135000000     2.820000000
H     0.455000000     2.094000000     2.495000000
C     0.533000000     4.128000000     1.588000000
C     1.662000000     4.822000000     1.040000000
H     2.676000000     4.722000000     1.417000000
C    -0.619000000     4.108000000     0.832000000
H    -1.438000000     3.522000000     1.241000000
C    -0.707000000     4.802000000    -0.382000000
O    -1.931000000     4.925000000    -1.052000000
C     0.350000000     5.587000000    -0.776000000
H     0.166000000     6.227000000    -1.636000000
C     1.583000000     5.562000000    -0.171000000
O     2.660000000     6.268000000    -0.785000000
C     3.987000000     5.841000000    -0.692000000
C     4.441000000     4.738000000    -1.453000000
H     3.760000000     4.201000000    -2.108000000
C     4.796000000     6.598000000     0.182000000
H     4.466000000     7.534000000     0.626000000
C     6.131000000     6.164000000     0.314000000
H     6.809000000     6.666000000     0.999000000
C     6.594000000     5.065000000    -0.386000000
H     7.612000000     4.789000000    -0.123000000
C     5.743000000     4.288000000    -1.235000000
O     6.196000000     3.280000000    -1.921000000
C     5.580000000     2.007000000    -1.905000000
C     5.300000000     1.476000000    -3.170000000
H     5.633000000     1.966000000    -4.081000000
C     4.809000000     0.204000000    -3.265000000
O     4.569000000    -0.221000000    -4.581000000
C     4.121000000    -1.547000000    -4.757000000
C     2.722000000    -1.773000000    -4.761000000
H     2.005000000    -1.001000000    -4.493000000
C     5.045000000    -2.563000000    -5.064000000
H     6.059000000    -2.177000000    -5.139000000
C     4.509000000    -3.827000000    -5.327000000
H     5.172000000    -4.636000000    -5.621000000
C     3.181000000    -4.099000000    -5.364000000
H     2.819000000    -5.068000000    -5.699000000
C     2.295000000    -3.082000000    -5.058000000
O     0.998000000    -3.254000000    -5.396000000
C     0.049000000    -3.639000000    -4.501000000
C    -1.249000000    -3.884000000    -5.005000000
H    -1.471000000    -3.732000000    -6.058000000
C    -2.270000000    -4.353000000    -4.160000000
O    -3.564000000    -4.462000000    -4.625000000
C    -4.626000000    -3.965000000    -3.959000000
C    -4.773000000    -2.577000000    -3.769000000
H    -4.095000000    -1.967000000    -4.360000000
C    -5.587000000    -4.855000000    -3.465000000
H    -5.431000000    -5.926000000    -3.561000000
C    -6.751000000    -4.294000000    -2.902000000
H    -7.500000000    -4.946000000    -2.460000000
C    -6.867000000    -2.934000000    -2.679000000
H    -7.575000000    -2.473000000    -1.995000000
C    -5.892000000    -2.049000000    -3.097000000
O    -6.019000000    -0.741000000    -2.851000000
C    -5.902000000    -0.053000000    -1.648000000
C    -6.427000000     1.229000000    -1.546000000
H    -6.982000000     1.584000000    -2.411000000
C    -6.067000000     1.975000000    -0.443000000
O    -6.413000000     3.386000000    -0.435000000
C    -5.423000000     4.392000000    -0.154000000
C    -5.716000000     5.687000000     0.409000000
H    -6.743000000     5.978000000     0.616000000
C    -4.723000000     6.646000000     0.614000000
H    -5.030000000     7.582000000     1.073000000
C    -3.486000000     6.370000000     0.077000000
H    -2.708000000     7.115000000     0.225000000
C    -3.189000000     5.174000000    -0.564000000
C    -4.149000000     4.224000000    -0.663000000
H    -3.782000000     3.299000000    -1.100000000
C    -0.285000000    -0.839000000    -1.383000000
H    -0.874000000    -1.697000000    -1.695000000
C     0.094000000    -0.875000000    -0.004000000
H    -0.216000000    -1.686000000     0.650000000
C     0.844000000     0.175000000     0.535000000
H     1.210000000     0.151000000     1.522000000
C     1.247000000     1.230000000    -0.324000000
H     1.804000000     2.084000000     0.053000000
C     0.781000000     1.290000000    -1.613000000
H     1.048000000     2.182000000    -2.173000000
C     0.063000000     0.276000000    -2.246000000
C    -0.381000000     0.436000000    -3.655000000
O     0.184000000     1.289000000    -4.352000000
O    -1.467000000     0.036000000    -3.918000000
O     2.125000000     4.779000000    -5.259000000
H     2.302000000     3.843000000    -5.160000000
H     2.951000000     5.204000000    -5.027000000
O     2.761000000     2.205000000    -4.725000000
H     1.853000000     1.910000000    -4.649000000
H     3.216000000     1.474000000    -5.143000000
O    -2.875000000     5.397000000    -7.944000000
H    -2.543000000     5.281000000    -8.834000000
H    -2.209000000     4.997000000    -7.385000000
O    -0.685000000     2.790000000   -10.363000000
H    -1.504000000     2.301000000   -10.439000000
H    -0.391000000     2.628000000    -9.467000000
O    -2.980000000     5.995000000    -4.939000000
H    -3.619000000     5.411000000    -4.530000000
H    -2.172000000     5.482000000    -4.968000000
O     0.088000000     4.971000000    -7.397000000
H     0.437000000     4.914000000    -6.508000000
H     0.758000000     4.559000000    -7.943000000
O    -4.718000000     3.926000000    -4.343000000
H    -4.128000000     3.185000000    -4.207000000
H    -5.219000000     3.693000000    -5.125000000
O    -4.546000000     2.804000000    -7.682000000
H    -5.430000000     2.820000000    -8.048000000
H    -4.229000000     3.702000000    -7.781000000
O    -5.125000000     0.334000000    -6.172000000
H    -5.698000000     0.325000000    -5.405000000
H    -5.212000000     1.219000000    -6.526000000
O    -2.421000000    -0.682000000    -6.347000000
H    -3.274000000    -0.275000000    -6.195000000
H    -1.889000000    -0.410000000    -5.600000000
O    -1.990000000    -2.101000000    -8.765000000
H    -2.405000000    -1.745000000    -7.978000000
H    -1.079000000    -2.244000000    -8.511000000
O    -1.617000000     3.303000000    -5.245000000
H    -0.819000000     2.913000000    -4.889000000
H    -2.325000000     2.908000000    -4.736000000
O     0.908000000     7.005000000    -4.591000000
H     1.229000000     6.108000000    -4.688000000
H    -0.017000000     6.956000000    -4.834000000
O    -1.906000000     1.925000000    -7.740000000
H    -2.799000000     1.613000000    -7.885000000
H    -1.894000000     2.199000000    -6.823000000
O     0.531000000     1.037000000    -6.989000000
H     0.426000000     1.037000000    -6.037000000
H    -0.257000000     1.470000000    -7.317000000
O    -3.335000000     1.706000000    -3.799000000
H    -3.763000000     1.634000000    -2.946000000
H    -2.774000000     0.932000000    -3.852000000
O     2.704000000     0.018000000    -8.906000000
H     2.055000000    -0.025000000    -8.203000000
H     3.349000000    -0.651000000    -8.678000000
O     2.033000000     3.112000000    -8.166000000
H     1.791000000     2.268000000    -7.786000000
H     2.889000000     3.310000000    -7.786000000
O     0.509000000    -2.934000000    -8.131000000
H     0.903000000    -2.513000000    -7.367000000
H     1.024000000    -2.614000000    -8.872000000
