215
-1445.91471
C     4.458000000    -1.741000000    -2.778000000
H     4.457000000    -2.698000000    -2.262000000
C     4.580000000    -0.585000000    -2.000000000
C     4.638000000     0.654000000    -2.653000000
H     4.675000000     1.592000000    -2.105000000
C     4.288000000    -0.600000000    -0.458000000
O     4.594000000    -1.894000000     0.013000000
H     3.213000000    -0.413000000    -0.317000000
O     5.007000000     0.384000000     0.314000000
C     4.308000000     0.965000000     1.302000000
C     3.753000000     2.273000000     1.048000000
H     3.872000000     2.741000000     0.074000000
C     2.995000000     2.928000000     2.003000000
O     2.203000000     4.064000000     1.672000000
C     2.691000000     2.259000000     3.218000000
C     1.830000000     2.892000000     4.288000000
H     2.119000000     2.527000000     5.276000000
C     0.373000000     2.559000000     4.120000000
C    -0.087000000     1.421000000     4.716000000
H     0.606000000     0.965000000     5.418000000
H     2.013000000     3.966000000     4.358000000
C     3.344000000     1.011000000     3.530000000
H     3.066000000     0.579000000     4.488000000
C     4.148000000     0.353000000     2.598000000
C     4.721000000    -1.012000000     2.929000000
H     4.557000000    -1.202000000     3.992000000
H     5.731000000    -1.118000000     2.529000000
C     3.744000000    -2.060000000     2.254000000
C     2.740000000    -2.591000000     3.074000000
H     2.643000000    -2.313000000     4.120000000
C     3.760000000    -2.455000000     0.929000000
C     2.945000000    -3.427000000     0.402000000
H     2.982000000    -3.702000000    -0.649000000
C     1.950000000    -3.995000000     1.271000000
O     1.022000000    -4.763000000     0.662000000
C    -0.303000000    -4.116000000     0.409000000
C    -0.780000000    -4.657000000    -0.958000000
C    -2.132000000    -4.623000000    -1.303000000
H    -2.776000000    -4.174000000    -0.551000000
C     0.161000000    -5.062000000    -1.878000000
H     1.220000000    -5.164000000    -1.655000000
O    -1.310000000    -4.397000000     1.420000000
H    -0.159000000    -3.025000000     0.413000000
C     1.826000000    -3.600000000     2.609000000
C     0.766000000    -4.111000000     3.512000000
H     1.101000000    -4.184000000     4.548000000
H     0.623000000    -5.179000000     3.334000000
C    -0.521000000    -3.265000000     3.390000000
C    -0.640000000    -2.189000000     4.291000000
H     0.200000000    -1.840000000     4.887000000
C    -1.522000000    -3.462000000     2.428000000
C    -2.721000000    -2.732000000     2.427000000
H    -3.544000000    -2.977000000     1.760000000
C    -2.865000000    -1.761000000     3.384000000
O    -3.976000000    -0.971000000     3.141000000
C    -3.774000000     0.324000000     2.594000000
C    -4.819000000     0.700000000     1.488000000
C    -5.088000000    -0.207000000     0.457000000
H    -4.715000000    -1.210000000     0.647000000
C    -5.327000000     1.943000000     1.375000000
H    -5.052000000     2.676000000     2.129000000
O    -3.604000000     1.323000000     3.590000000
H    -2.835000000     0.321000000     2.022000000
C    -1.814000000    -1.489000000     4.297000000
C    -1.937000000    -0.212000000     5.194000000
H    -1.328000000    -0.396000000     6.082000000
H    -2.940000000    -0.115000000     5.614000000
C    -1.397000000     1.115000000     4.586000000
C    -2.326000000     1.878000000     3.803000000
C    -1.788000000     2.932000000     3.088000000
H    -2.440000000     3.307000000     2.303000000
C    -0.514000000     3.326000000     3.287000000
O    -0.010000000     4.261000000     2.515000000
C     0.806000000     3.863000000     1.370000000
H     0.546000000     2.811000000     1.180000000
C     0.434000000     4.481000000    -0.009000000
C     1.359000000     4.635000000    -1.086000000
H     2.425000000     4.473000000    -0.953000000
C    -0.916000000     4.795000000    -0.239000000
H    -1.689000000     4.614000000     0.503000000
C    -1.297000000     5.492000000    -1.410000000
O    -2.595000000     5.885000000    -1.611000000
C    -0.279000000     5.848000000    -2.322000000
H    -0.529000000     6.510000000    -3.147000000
C     1.025000000     5.338000000    -2.218000000
O     1.920000000     5.742000000    -3.109000000
C     3.220000000     5.175000000    -3.240000000
C     3.289000000     3.999000000    -3.958000000
H     2.394000000     3.697000000    -4.496000000
C     4.369000000     5.570000000    -2.526000000
H     4.337000000     6.453000000    -1.893000000
C     5.550000000     4.806000000    -2.600000000
H     6.383000000     5.191000000    -2.017000000
C     5.632000000     3.677000000    -3.455000000
H     6.566000000     3.126000000    -3.525000000
C     4.431000000     3.249000000    -4.081000000
O     4.386000000     2.001000000    -4.700000000
C     4.574000000     0.781000000    -4.037000000
C     4.532000000    -0.411000000    -4.805000000
H     4.374000000    -0.405000000    -5.880000000
C     4.406000000    -1.635000000    -4.177000000
O     4.216000000    -2.735000000    -4.917000000
C     3.791000000    -3.919000000    -4.484000000
C     2.444000000    -4.234000000    -4.554000000
H     1.810000000    -3.505000000    -5.051000000
C     4.640000000    -4.854000000    -3.932000000
H     5.697000000    -4.600000000    -3.931000000
C     4.237000000    -6.141000000    -3.475000000
H     4.931000000    -6.886000000    -3.095000000
C     2.869000000    -6.372000000    -3.420000000
H     2.478000000    -7.295000000    -3.000000000
C     2.021000000    -5.455000000    -4.029000000
O     0.680000000    -5.807000000    -4.167000000
C    -0.231000000    -5.371000000    -3.180000000
C    -1.585000000    -5.321000000    -3.570000000
H    -1.840000000    -5.632000000    -4.579000000
C    -2.521000000    -4.938000000    -2.596000000
O    -3.848000000    -4.815000000    -2.933000000
C    -4.761000000    -4.145000000    -2.193000000
C    -4.974000000    -2.792000000    -2.358000000
H    -4.436000000    -2.298000000    -3.163000000
C    -5.603000000    -4.908000000    -1.352000000
H    -5.558000000    -5.994000000    -1.348000000
C    -6.640000000    -4.229000000    -0.643000000
H    -7.278000000    -4.826000000     0.003000000
C    -6.680000000    -2.869000000    -0.692000000
H    -7.389000000    -2.334000000    -0.067000000
C    -5.933000000    -2.103000000    -1.594000000
O    -6.225000000    -0.738000000    -1.676000000
C    -5.863000000     0.125000000    -0.652000000
C    -6.410000000     1.424000000    -0.743000000
H    -7.061000000     1.740000000    -1.554000000
C    -6.113000000     2.312000000     0.283000000
O    -6.516000000     3.668000000     0.104000000
C    -5.588000000     4.780000000    -0.013000000
C    -5.707000000     5.762000000     0.947000000
H    -6.502000000     5.636000000     1.678000000
C    -4.833000000     6.771000000     1.094000000
H    -4.957000000     7.473000000     1.915000000
C    -3.769000000     6.879000000     0.208000000
H    -3.036000000     7.681000000     0.229000000
C    -3.622000000     5.812000000    -0.705000000
C    -4.538000000     4.780000000    -0.855000000
H    -4.367000000     3.956000000    -1.543000000
C    -1.305000000    -1.137000000    -2.343000000
H    -2.065000000    -1.828000000    -2.699000000
C    -1.069000000    -0.888000000    -0.996000000
H    -1.654000000    -1.371000000    -0.218000000
C    -0.008000000    -0.045000000    -0.631000000
H     0.313000000     0.067000000     0.411000000
C     0.790000000     0.552000000    -1.608000000
H     1.698000000     1.041000000    -1.264000000
C     0.511000000     0.416000000    -2.960000000
H     1.135000000     0.935000000    -3.684000000
C    -0.468000000    -0.500000000    -3.326000000
C    -0.808000000    -0.602000000    -4.808000000
O    -0.483000000     0.289000000    -5.617000000
O    -1.433000000    -1.613000000    -5.204000000
O    -2.730000000    -2.015000000    -9.250000000
H    -2.380000000    -2.720000000    -8.706000000
H    -2.454000000    -1.211000000    -8.810000000
O    -0.459000000     4.618000000    -8.668000000
H     0.495000000     4.604000000    -8.592000000
H    -0.754000000     3.884000000    -8.128000000
O     1.652000000     0.049000000    -7.319000000
H     1.079000000     0.217000000    -6.571000000
H     1.881000000    -0.878000000    -7.241000000
O     2.149000000     4.087000000    -7.528000000
H     2.960000000     4.594000000    -7.543000000
H     2.436000000     3.175000000    -7.578000000
O    -3.435000000     3.463000000    -4.922000000
H    -2.813000000     3.461000000    -4.194000000
H    -4.252000000     3.142000000    -4.540000000
O    -5.588000000    -4.546000000    -6.775000000
H    -6.451000000    -4.172000000    -6.602000000
H    -4.981000000    -3.816000000    -6.653000000
O    -4.937000000    -0.349000000    -7.006000000
H    -5.589000000     0.062000000    -6.438000000
H    -4.561000000     0.377000000    -7.504000000
O    -3.620000000    -2.560000000    -6.280000000
H    -4.136000000    -1.797000000    -6.542000000
H    -2.846000000    -2.190000000    -5.854000000
O    -2.308000000    -4.481000000    -7.838000000
H    -2.917000000    -4.161000000    -7.173000000
H    -2.487000000    -5.420000000    -7.895000000
O    -1.279000000     2.484000000    -6.616000000
H    -2.068000000     2.525000000    -6.076000000
H    -0.806000000     1.717000000    -6.292000000
O    -0.049000000     4.576000000    -5.713000000
H     0.706000000     4.320000000    -6.242000000
H    -0.763000000     4.025000000    -6.031000000
O    -4.309000000     2.856000000    -8.056000000
H    -3.742000000     3.024000000    -7.303000000
H    -4.448000000     3.718000000    -8.448000000
O    -1.741000000     0.202000000    -8.067000000
H    -1.444000000    -0.222000000    -7.262000000
H    -1.531000000     1.128000000    -7.942000000
O    -1.571000000     1.146000000   -10.527000000
H    -2.065000000     0.727000000   -11.232000000
H    -1.847000000     0.685000000    -9.735000000
O    -2.294000000     2.058000000    -2.539000000
H    -1.349000000     1.907000000    -2.567000000
H    -2.675000000     1.181000000    -2.492000000
O    -0.101000000    -3.093000000    -6.884000000
H    -0.544000000    -2.647000000    -6.162000000
H    -0.643000000    -3.862000000    -7.060000000
O     2.372000000     1.492000000    -9.441000000
H     2.017000000     0.885000000    -8.792000000
H     3.322000000     1.413000000    -9.349000000
O     0.143000000    -2.069000000    -9.507000000
H    -0.097000000    -2.177000000    -8.587000000
H    -0.678000000    -1.836000000    -9.942000000
O    -5.928000000     2.404000000    -4.167000000
H    -6.793000000     2.588000000    -3.801000000
H    -5.976000000     1.492000000    -4.452000000
