215
-1430.85835
C     4.037000000    -1.752000000    -2.647000000
H     3.961000000    -2.759000000    -2.244000000
C     4.214000000    -0.687000000    -1.757000000
C     4.261000000     0.605000000    -2.309000000
H     4.223000000     1.416000000    -1.586000000
C     4.135000000    -0.802000000    -0.235000000
O     4.508000000    -2.160000000     0.154000000
H     3.060000000    -0.663000000    -0.045000000
O     4.927000000     0.214000000     0.434000000
C     4.323000000     0.814000000     1.489000000
C     3.937000000     2.128000000     1.257000000
H     4.089000000     2.466000000     0.235000000
C     3.061000000     2.746000000     2.137000000
O     2.498000000     3.949000000     1.798000000
C     2.770000000     2.103000000     3.390000000
C     1.946000000     2.901000000     4.354000000
H     2.230000000     2.732000000     5.395000000
C     0.427000000     2.649000000     4.194000000
C    -0.093000000     1.494000000     4.716000000
H     0.589000000     0.884000000     5.302000000
H     2.055000000     3.984000000     4.267000000
C     3.168000000     0.758000000     3.583000000
H     2.861000000     0.220000000     4.476000000
C     3.971000000     0.118000000     2.644000000
C     4.483000000    -1.301000000     2.956000000
H     4.465000000    -1.356000000     4.046000000
H     5.536000000    -1.294000000     2.665000000
C     3.597000000    -2.354000000     2.379000000
C     2.562000000    -2.821000000     3.107000000
H     2.433000000    -2.443000000     4.118000000
C     3.655000000    -2.747000000     1.053000000
C     2.766000000    -3.687000000     0.502000000
H     2.888000000    -4.140000000    -0.478000000
C     1.767000000    -4.219000000     1.273000000
O     0.801000000    -4.960000000     0.690000000
C    -0.383000000    -4.263000000     0.302000000
C    -0.848000000    -4.685000000    -1.062000000
C    -2.215000000    -4.558000000    -1.491000000
H    -2.920000000    -4.068000000    -0.824000000
C     0.001000000    -5.310000000    -1.941000000
H     1.051000000    -5.339000000    -1.659000000
O    -1.484000000    -4.394000000     1.226000000
H    -0.223000000    -3.177000000     0.364000000
C     1.703000000    -3.774000000     2.578000000
C     0.541000000    -4.278000000     3.395000000
H     0.848000000    -4.302000000     4.443000000
H     0.219000000    -5.299000000     3.180000000
C    -0.555000000    -3.329000000     3.195000000
C    -0.665000000    -2.342000000     4.197000000
H     0.111000000    -2.129000000     4.928000000
C    -1.522000000    -3.413000000     2.200000000
C    -2.702000000    -2.700000000     2.259000000
H    -3.522000000    -2.811000000     1.554000000
C    -2.828000000    -1.745000000     3.190000000
O    -3.789000000    -0.804000000     2.921000000
C    -3.456000000     0.462000000     2.247000000
C    -4.422000000     0.854000000     1.115000000
C    -5.005000000    -0.213000000     0.414000000
H    -4.781000000    -1.233000000     0.717000000
C    -4.696000000     2.180000000     0.734000000
H    -4.283000000     3.022000000     1.284000000
O    -3.485000000     1.552000000     3.224000000
H    -2.492000000     0.222000000     1.775000000
C    -1.840000000    -1.504000000     4.117000000
C    -1.952000000    -0.222000000     4.928000000
H    -1.409000000    -0.458000000     5.845000000
H    -2.980000000    -0.109000000     5.280000000
C    -1.405000000     1.063000000     4.342000000
C    -2.232000000     1.912000000     3.601000000
C    -1.727000000     2.990000000     3.003000000
H    -2.262000000     3.552000000     2.243000000
C    -0.413000000     3.410000000     3.356000000
O     0.185000000     4.361000000     2.585000000
C     1.095000000     3.994000000     1.511000000
H     0.722000000     2.987000000     1.274000000
C     0.817000000     4.863000000     0.292000000
C     1.802000000     5.227000000    -0.591000000
H     2.835000000     4.962000000    -0.379000000
C    -0.537000000     5.158000000    -0.065000000
H    -1.366000000     4.801000000     0.540000000
C    -0.823000000     5.870000000    -1.229000000
O    -2.128000000     6.092000000    -1.676000000
C     0.161000000     6.357000000    -2.071000000
H    -0.111000000     6.869000000    -2.990000000
C     1.472000000     5.928000000    -1.768000000
O     2.466000000     6.155000000    -2.748000000
C     3.530000000     5.315000000    -2.985000000
C     3.240000000     4.094000000    -3.527000000
H     2.215000000     3.810000000    -3.753000000
C     4.828000000     5.764000000    -2.631000000
H     4.925000000     6.763000000    -2.214000000
C     5.850000000     4.892000000    -2.777000000
H     6.807000000     5.173000000    -2.344000000
C     5.611000000     3.648000000    -3.323000000
H     6.434000000     2.938000000    -3.346000000
C     4.277000000     3.203000000    -3.724000000
O     4.131000000     1.973000000    -4.346000000
C     4.203000000     0.777000000    -3.689000000
C     4.129000000    -0.295000000    -4.559000000
H     4.224000000    -0.105000000    -5.625000000
C     4.022000000    -1.590000000    -4.049000000
O     4.015000000    -2.745000000    -4.858000000
C     3.599000000    -3.995000000    -4.420000000
C     2.276000000    -4.427000000    -4.636000000
H     1.580000000    -3.720000000    -5.081000000
C     4.548000000    -4.801000000    -3.739000000
H     5.582000000    -4.505000000    -3.582000000
C     4.173000000    -6.026000000    -3.151000000
H     4.877000000    -6.713000000    -2.688000000
C     2.839000000    -6.434000000    -3.351000000
H     2.665000000    -7.449000000    -3.005000000
C     1.925000000    -5.628000000    -4.072000000
O     0.570000000    -6.070000000    -4.173000000
C    -0.375000000    -5.593000000    -3.265000000
C    -1.656000000    -5.310000000    -3.702000000
H    -1.975000000    -5.579000000    -4.706000000
C    -2.602000000    -4.843000000    -2.729000000
O    -3.927000000    -4.485000000    -3.007000000
C    -4.954000000    -3.977000000    -2.229000000
C    -5.221000000    -2.619000000    -2.097000000
H    -4.687000000    -1.864000000    -2.669000000
C    -5.717000000    -4.908000000    -1.582000000
H    -5.535000000    -5.977000000    -1.659000000
C    -6.786000000    -4.447000000    -0.772000000
H    -7.331000000    -5.288000000    -0.351000000
C    -7.141000000    -3.077000000    -0.739000000
H    -8.012000000    -2.746000000    -0.180000000
C    -6.363000000    -2.181000000    -1.405000000
O    -6.648000000    -0.863000000    -1.245000000
C    -5.975000000     0.089000000    -0.550000000
C    -6.391000000     1.395000000    -0.704000000
H    -7.240000000     1.623000000    -1.343000000
C    -5.676000000     2.466000000    -0.213000000
O    -6.136000000     3.708000000    -0.437000000
C    -5.275000000     4.774000000    -0.354000000
C    -5.721000000     5.827000000     0.461000000
H    -6.637000000     5.687000000     1.029000000
C    -4.853000000     6.877000000     0.718000000
H    -4.945000000     7.571000000     1.550000000
C    -3.588000000     6.936000000     0.083000000
H    -2.879000000     7.715000000     0.352000000
C    -3.282000000     5.963000000    -0.909000000
C    -4.169000000     4.847000000    -1.103000000
H    -4.000000000     3.995000000    -1.756000000
C     0.729000000    -0.765000000    -2.796000000
H     1.042000000    -1.743000000    -3.152000000
C     0.652000000    -0.531000000    -1.437000000
H     0.624000000    -1.325000000    -0.695000000
C     0.323000000     0.736000000    -0.985000000
H     0.198000000     0.861000000     0.105000000
C     0.205000000     1.776000000    -1.896000000
H    -0.039000000     2.786000000    -1.578000000
C     0.506000000     1.595000000    -3.258000000
H     0.580000000     2.444000000    -3.932000000
C     0.613000000     0.270000000    -3.724000000
C     0.810000000     0.027000000    -5.200000000
O     0.539000000     0.929000000    -6.000000000
O     0.952000000    -1.119000000    -5.559000000
O    -3.024000000    -1.711000000    -9.672000000
H    -3.773000000    -2.054000000    -9.183000000
H    -2.403000000    -1.439000000    -8.997000000
O    -0.574000000     3.984000000    -8.933000000
H     0.291000000     4.237000000    -8.613000000
H    -0.606000000     4.318000000    -9.829000000
O     2.345000000    -0.757000000    -7.786000000
H     1.969000000    -0.805000000    -6.907000000
H     3.093000000    -1.355000000    -7.759000000
O     3.974000000     3.669000000    -7.134000000
H     4.172000000     4.525000000    -7.515000000
H     4.494000000     3.052000000    -7.648000000
O     1.082000000     6.134000000    -5.897000000
H     1.195000000     6.248000000    -6.840000000
H     1.026000000     5.187000000    -5.774000000
O    -1.898000000     3.502000000    -5.116000000
H    -1.705000000     3.211000000    -6.007000000
H    -2.807000000     3.240000000    -4.969000000
O    -4.029000000    -0.811000000    -6.257000000
H    -3.935000000     0.139000000    -6.323000000
H    -3.533000000    -1.048000000    -5.473000000
O    -0.664000000    -3.301000000    -6.367000000
H    -0.282000000    -4.139000000    -6.106000000
H    -0.192000000    -2.651000000    -5.847000000
O    -3.094000000    -3.961000000    -7.425000000
H    -2.292000000    -3.559000000    -7.092000000
H    -3.178000000    -4.775000000    -6.928000000
O    -1.513000000     1.724000000    -7.584000000
H    -1.343000000     2.467000000    -8.163000000
H    -0.718000000     1.643000000    -7.058000000
O     1.117000000     3.455000000    -6.553000000
H     2.065000000     3.391000000    -6.674000000
H     0.859000000     2.592000000    -6.229000000
O    -4.400000000     1.865000000    -7.375000000
H    -3.496000000     1.646000000    -7.600000000
H    -4.829000000     2.009000000    -8.218000000
O     1.600000000     1.376000000    -9.518000000
H     1.587000000     0.597000000    -8.963000000
H     0.708000000     1.720000000    -9.470000000
O    -0.987000000     0.883000000   -11.477000000
H    -1.041000000     0.055000000   -11.955000000
H    -1.277000000     0.666000000   -10.590000000
O    -3.696000000     0.771000000    -3.682000000
H    -4.122000000     1.567000000    -4.000000000
H    -2.994000000     1.087000000    -3.113000000
O    -0.640000000    -1.177000000    -8.173000000
H    -0.776000000    -0.376000000    -7.667000000
H    -0.429000000    -1.842000000    -7.517000000
O     4.648000000     1.135000000    -8.395000000
H     3.824000000     0.648000000    -8.358000000
H     5.053000000     0.858000000    -9.216000000
O     1.461000000    -2.011000000   -10.341000000
H     0.843000000    -1.734000000    -9.664000000
H     2.322000000    -1.900000000    -9.937000000
O     5.178000000    -1.887000000    -7.874000000
H     5.552000000    -2.756000000    -8.015000000
H     5.626000000    -1.327000000    -8.508000000
