215
-1449.72455
C     4.435000000    -1.937000000    -2.421000000
H     4.252000000    -2.886000000    -1.925000000
C     4.557000000    -0.827000000    -1.529000000
C     4.717000000     0.470000000    -2.067000000
H     4.804000000     1.304000000    -1.375000000
C     4.210000000    -0.983000000    -0.040000000
O     4.481000000    -2.267000000     0.476000000
H     3.135000000    -0.752000000     0.011000000
O     4.932000000     0.009000000     0.770000000
C     4.180000000     0.618000000     1.823000000
C     3.790000000     1.941000000     1.566000000
H     4.174000000     2.432000000     0.675000000
C     2.927000000     2.499000000     2.511000000
O     2.365000000     3.660000000     2.132000000
C     2.493000000     1.803000000     3.608000000
C     1.568000000     2.561000000     4.607000000
H     1.836000000     2.310000000     5.635000000
C     0.040000000     2.297000000     4.379000000
C    -0.621000000     1.213000000     4.975000000
H    -0.096000000     0.522000000     5.630000000
H     1.832000000     3.620000000     4.564000000
C     2.967000000     0.522000000     3.893000000
H     2.649000000     0.018000000     4.802000000
C     3.806000000    -0.040000000     2.974000000
C     4.281000000    -1.431000000     3.238000000
H     4.463000000    -1.630000000     4.296000000
H     5.251000000    -1.405000000     2.737000000
C     3.368000000    -2.506000000     2.582000000
C     2.244000000    -2.905000000     3.242000000
H     2.049000000    -2.637000000     4.277000000
C     3.504000000    -2.903000000     1.209000000
C     2.632000000    -3.753000000     0.608000000
H     2.784000000    -4.078000000    -0.418000000
C     1.535000000    -4.225000000     1.361000000
O     0.550000000    -4.927000000     0.725000000
C    -0.594000000    -4.245000000     0.287000000
C    -0.965000000    -4.631000000    -1.112000000
C    -2.281000000    -4.394000000    -1.577000000
H    -3.045000000    -3.939000000    -0.953000000
C     0.042000000    -4.999000000    -2.077000000
H     1.089000000    -4.962000000    -1.785000000
O    -1.765000000    -4.426000000     1.128000000
H    -0.350000000    -3.180000000     0.166000000
C     1.331000000    -3.792000000     2.653000000
C     0.095000000    -4.271000000     3.451000000
H     0.319000000    -4.267000000     4.520000000
H    -0.200000000    -5.289000000     3.190000000
C    -1.127000000    -3.338000000     3.229000000
C    -1.374000000    -2.381000000     4.165000000
H    -0.640000000    -2.347000000     4.967000000
C    -2.027000000    -3.546000000     2.211000000
C    -3.122000000    -2.668000000     2.093000000
H    -3.701000000    -2.804000000     1.183000000
C    -3.440000000    -1.716000000     3.023000000
O    -4.469000000    -0.834000000     2.687000000
C    -3.922000000     0.443000000     2.216000000
C    -4.758000000     0.930000000     0.988000000
C    -5.095000000    -0.035000000     0.028000000
H    -4.772000000    -1.063000000     0.171000000
C    -4.980000000     2.337000000     0.797000000
H    -4.727000000     3.131000000     1.495000000
O    -3.882000000     1.401000000     3.282000000
H    -2.948000000     0.187000000     1.771000000
C    -2.527000000    -1.548000000     4.055000000
C    -2.668000000    -0.358000000     5.043000000
H    -2.340000000    -0.724000000     6.018000000
H    -3.739000000    -0.156000000     5.110000000
C    -1.950000000     0.923000000     4.591000000
C    -2.626000000     1.751000000     3.751000000
C    -1.962000000     2.765000000     3.128000000
H    -2.470000000     3.242000000     2.293000000
C    -0.648000000     3.105000000     3.465000000
O    -0.012000000     4.023000000     2.659000000
C     0.953000000     3.653000000     1.691000000
H     0.823000000     2.616000000     1.348000000
C     0.778000000     4.522000000     0.441000000
C     1.789000000     4.623000000    -0.512000000
H     2.706000000     4.064000000    -0.340000000
C    -0.418000000     5.155000000     0.134000000
H    -1.192000000     4.952000000     0.870000000
C    -0.606000000     5.776000000    -1.127000000
O    -1.670000000     6.614000000    -1.411000000
C     0.407000000     5.866000000    -1.981000000
H     0.323000000     6.446000000    -2.897000000
C     1.649000000     5.335000000    -1.713000000
O     2.576000000     5.408000000    -2.745000000
C     3.872000000     4.783000000    -2.766000000
C     4.070000000     3.523000000    -3.148000000
H     3.247000000     2.919000000    -3.520000000
C     4.976000000     5.530000000    -2.335000000
H     4.817000000     6.551000000    -1.998000000
C     6.296000000     5.032000000    -2.391000000
H     7.147000000     5.609000000    -2.039000000
C     6.508000000     3.764000000    -2.917000000
H     7.520000000     3.544000000    -3.244000000
C     5.366000000     3.061000000    -3.327000000
O     5.637000000     1.792000000    -3.859000000
C     5.084000000     0.599000000    -3.390000000
C     5.057000000    -0.484000000    -4.237000000
H     5.259000000    -0.295000000    -5.288000000
C     4.604000000    -1.716000000    -3.803000000
O     4.241000000    -2.664000000    -4.671000000
C     3.797000000    -3.948000000    -4.285000000
C     2.477000000    -4.272000000    -4.555000000
H     1.855000000    -3.516000000    -5.026000000
C     4.596000000    -4.828000000    -3.597000000
H     5.616000000    -4.496000000    -3.424000000
C     4.114000000    -6.075000000    -3.246000000
H     4.751000000    -6.722000000    -2.649000000
C     2.783000000    -6.403000000    -3.507000000
H     2.393000000    -7.320000000    -3.074000000
C     2.011000000    -5.526000000    -4.244000000
O     0.702000000    -5.809000000    -4.288000000
C    -0.233000000    -5.383000000    -3.384000000
C    -1.622000000    -5.240000000    -3.740000000
H    -1.969000000    -5.387000000    -4.759000000
C    -2.593000000    -4.731000000    -2.887000000
O    -3.894000000    -4.731000000    -3.228000000
C    -4.918000000    -3.996000000    -2.648000000
C    -4.960000000    -2.545000000    -2.774000000
H    -4.227000000    -1.974000000    -3.338000000
C    -5.968000000    -4.531000000    -1.896000000
H    -6.084000000    -5.598000000    -1.727000000
C    -6.994000000    -3.704000000    -1.368000000
H    -7.797000000    -4.178000000    -0.808000000
C    -7.065000000    -2.330000000    -1.568000000
H    -7.922000000    -1.799000000    -1.160000000
C    -5.926000000    -1.750000000    -2.157000000
O    -5.913000000    -0.392000000    -2.260000000
C    -5.619000000     0.412000000    -1.195000000
C    -5.843000000     1.744000000    -1.381000000
H    -6.243000000     2.058000000    -2.342000000
C    -5.513000000     2.709000000    -0.409000000
O    -5.697000000     4.040000000    -0.763000000
C    -4.929000000     5.136000000    -0.508000000
C    -5.569000000     6.274000000     0.056000000
H    -6.645000000     6.333000000     0.197000000
C    -4.859000000     7.422000000     0.246000000
H    -5.314000000     8.241000000     0.797000000
C    -3.588000000     7.565000000    -0.301000000
H    -3.023000000     8.478000000    -0.131000000
C    -2.981000000     6.490000000    -0.921000000
C    -3.671000000     5.240000000    -0.993000000
H    -3.155000000     4.395000000    -1.441000000
C     0.969000000    -0.545000000    -2.305000000
H     1.372000000    -1.467000000    -2.715000000
C     0.543000000    -0.568000000    -0.993000000
H     0.712000000    -1.459000000    -0.393000000
C    -0.122000000     0.568000000    -0.457000000
H    -0.494000000     0.514000000     0.579000000
C    -0.241000000     1.737000000    -1.169000000
H    -0.736000000     2.622000000    -0.778000000
C     0.230000000     1.758000000    -2.506000000
H     0.100000000     2.641000000    -3.127000000
C     0.761000000     0.586000000    -3.131000000
C     0.894000000     0.723000000    -4.598000000
O     0.851000000     1.810000000    -5.170000000
O     1.011000000    -0.360000000    -5.182000000
O    -3.414000000     1.048000000    -9.260000000
H    -4.238000000     1.401000000    -9.596000000
H    -3.095000000     1.719000000    -8.656000000
O     2.688000000    -1.477000000    -7.074000000
H     2.210000000    -1.033000000    -6.373000000
H     3.468000000    -1.831000000    -6.645000000
O    -1.893000000    -1.185000000    -8.933000000
H    -2.451000000    -0.436000000    -9.140000000
H    -1.122000000    -0.802000000    -8.516000000
O     2.712000000     2.513000000    -9.206000000
H     3.243000000     1.892000000    -8.709000000
H     2.701000000     2.161000000   -10.096000000
O     2.487000000     6.076000000    -5.407000000
H     1.946000000     5.470000000    -5.912000000
H     2.606000000     5.644000000    -4.561000000
O    -0.635000000     3.847000000    -5.681000000
H    -0.281000000     4.524000000    -6.257000000
H     0.106000000     3.267000000    -5.509000000
O    -4.494000000    -2.117000000    -5.652000000
H    -3.661000000    -2.323000000    -5.228000000
H    -4.584000000    -1.169000000    -5.555000000
O    -4.007000000     0.666000000    -5.929000000
H    -3.622000000     0.638000000    -5.053000000
H    -3.577000000     1.407000000    -6.355000000
O    -1.215000000    -1.837000000    -4.708000000
H    -1.633000000    -1.043000000    -4.374000000
H    -0.367000000    -1.540000000    -5.037000000
O    -0.758000000    -3.473000000    -7.057000000
H    -0.890000000    -3.015000000    -6.227000000
H    -0.732000000    -4.399000000    -6.818000000
O    -2.590000000     2.726000000    -7.311000000
H    -2.897000000     3.575000000    -7.631000000
H    -1.779000000     2.925000000    -6.844000000
O     2.437000000     3.392000000    -6.522000000
H     2.375000000     2.955000000    -7.371000000
H     1.990000000     2.803000000    -5.915000000
O     1.187000000    -0.123000000   -10.387000000
H     1.094000000    -0.125000000    -9.434000000
H     0.301000000     0.038000000   -10.713000000
O    -2.290000000     0.347000000    -3.583000000
H    -2.410000000     1.296000000    -3.635000000
H    -1.666000000     0.224000000    -2.868000000
O    -0.157000000     0.612000000    -7.896000000
H    -0.757000000     1.319000000    -7.657000000
H     0.370000000     0.470000000    -7.110000000
O     4.221000000     0.695000000    -7.783000000
H     3.688000000    -0.094000000    -7.687000000
H     5.056000000     0.379000000    -8.130000000
O     1.587000000    -3.470000000    -8.782000000
H     0.791000000    -3.798000000    -8.362000000
H     1.846000000    -2.719000000    -8.248000000
O     6.032000000     3.028000000    -6.927000000
H     6.564000000     2.415000000    -6.419000000
H     5.129000000     2.770000000    -6.743000000
O    -3.066000000     3.194000000    -4.061000000
H    -3.871000000     3.503000000    -4.476000000
H    -2.368000000     3.468000000    -4.656000000
