215
-1451.75206
C     4.534000000    -1.136000000    -2.254000000
H     4.109000000    -2.051000000    -1.851000000
C     4.698000000     0.024000000    -1.456000000
C     4.908000000     1.238000000    -2.083000000
H     4.857000000     2.128000000    -1.461000000
C     4.382000000    -0.018000000     0.026000000
O     4.926000000    -1.133000000     0.765000000
H     3.284000000    -0.067000000     0.070000000
O     4.834000000     1.218000000     0.717000000
C     3.975000000     1.777000000     1.650000000
C     3.260000000     2.834000000     1.206000000
H     3.465000000     3.048000000     0.160000000
C     2.267000000     3.478000000     2.001000000
O     1.537000000     4.432000000     1.414000000
C     2.136000000     3.068000000     3.318000000
C     1.048000000     3.593000000     4.162000000
H     1.302000000     3.414000000     5.209000000
C    -0.347000000     3.094000000     3.869000000
C    -0.757000000     1.936000000     4.545000000
H    -0.182000000     1.525000000     5.371000000
H     1.151000000     4.675000000     4.063000000
C     2.849000000     1.963000000     3.762000000
H     2.687000000     1.491000000     4.728000000
C     3.763000000     1.260000000     2.933000000
C     4.562000000     0.128000000     3.449000000
H     4.602000000     0.098000000     4.540000000
H     5.544000000     0.276000000     2.994000000
C     3.901000000    -1.187000000     2.997000000
C     2.903000000    -1.736000000     3.755000000
H     2.605000000    -1.194000000     4.649000000
C     4.079000000    -1.735000000     1.714000000
C     3.419000000    -2.876000000     1.270000000
H     3.616000000    -3.150000000     0.236000000
C     2.544000000    -3.488000000     2.031000000
O     1.660000000    -4.475000000     1.372000000
C     0.298000000    -4.063000000     0.995000000
C    -0.053000000    -4.688000000    -0.348000000
C    -1.389000000    -4.979000000    -0.628000000
H    -2.133000000    -4.876000000     0.159000000
C     0.892000000    -4.800000000    -1.336000000
H     1.947000000    -4.587000000    -1.179000000
O    -0.583000000    -4.481000000     2.128000000
H     0.278000000    -2.979000000     0.810000000
C     2.242000000    -2.871000000     3.281000000
C     1.134000000    -3.457000000     4.152000000
H     1.355000000    -3.464000000     5.221000000
H     1.014000000    -4.522000000     3.944000000
C    -0.247000000    -2.880000000     3.848000000
C    -0.705000000    -1.721000000     4.507000000
H    -0.047000000    -1.293000000     5.259000000
C    -1.101000000    -3.524000000     2.891000000
C    -2.339000000    -2.980000000     2.593000000
H    -2.786000000    -3.418000000     1.705000000
C    -2.697000000    -1.807000000     3.151000000
O    -3.843000000    -1.194000000     2.600000000
C    -3.682000000     0.074000000     1.826000000
C    -4.657000000    -0.030000000     0.639000000
C    -5.058000000    -1.233000000     0.099000000
H    -4.849000000    -2.152000000     0.640000000
C    -4.976000000     1.172000000     0.036000000
H    -4.581000000     2.136000000     0.346000000
O    -3.878000000     1.178000000     2.730000000
H    -2.699000000     0.158000000     1.342000000
C    -1.964000000    -1.183000000     4.183000000
C    -2.404000000     0.105000000     4.981000000
H    -1.872000000    -0.008000000     5.928000000
H    -3.482000000     0.019000000     5.130000000
C    -1.953000000     1.358000000     4.185000000
C    -2.765000000     1.829000000     3.128000000
C    -2.311000000     2.964000000     2.435000000
H    -2.795000000     3.351000000     1.543000000
C    -1.133000000     3.592000000     2.824000000
O    -0.658000000     4.532000000     2.046000000
C     0.159000000     4.097000000     1.001000000
H     0.091000000     2.999000000     1.020000000
C    -0.198000000     4.604000000    -0.377000000
C     0.707000000     4.494000000    -1.429000000
H     1.660000000     4.014000000    -1.223000000
C    -1.508000000     5.018000000    -0.627000000
H    -2.227000000     5.023000000     0.189000000
C    -1.825000000     5.423000000    -1.949000000
O    -3.052000000     6.005000000    -2.191000000
C    -0.777000000     5.545000000    -2.913000000
H    -0.989000000     5.922000000    -3.910000000
C     0.469000000     4.948000000    -2.718000000
O     1.438000000     5.085000000    -3.668000000
C     2.793000000     4.926000000    -3.460000000
C     3.404000000     3.756000000    -3.927000000
H     2.797000000     3.006000000    -4.428000000
C     3.576000000     5.877000000    -2.824000000
H     3.008000000     6.733000000    -2.469000000
C     4.910000000     5.664000000    -2.450000000
H     5.439000000     6.351000000    -1.794000000
C     5.467000000     4.457000000    -2.811000000
H     6.496000000     4.176000000    -2.598000000
C     4.763000000     3.592000000    -3.691000000
O     5.409000000     2.448000000    -4.097000000
C     5.235000000     1.294000000    -3.418000000
C     5.226000000     0.135000000    -4.198000000
H     5.408000000     0.158000000    -5.269000000
C     4.889000000    -1.061000000    -3.593000000
O     4.723000000    -2.087000000    -4.492000000
C     4.358000000    -3.365000000    -4.116000000
C     3.038000000    -3.772000000    -3.995000000
H     2.246000000    -3.035000000    -4.103000000
C     5.315000000    -4.332000000    -3.937000000
H     6.339000000    -3.999000000    -4.085000000
C     5.064000000    -5.644000000    -3.756000000
H     5.807000000    -6.431000000    -3.659000000
C     3.763000000    -6.076000000    -3.632000000
H     3.491000000    -7.114000000    -3.455000000
C     2.715000000    -5.094000000    -3.705000000
O     1.402000000    -5.576000000    -3.583000000
C     0.525000000    -5.240000000    -2.582000000
C    -0.815000000    -5.559000000    -2.852000000
H    -1.193000000    -5.875000000    -3.821000000
C    -1.802000000    -5.417000000    -1.873000000
O    -3.057000000    -5.607000000    -2.260000000
C    -4.237000000    -5.216000000    -1.643000000
C    -4.801000000    -3.952000000    -1.748000000
H    -4.147000000    -3.264000000    -2.277000000
C    -4.958000000    -6.129000000    -0.964000000
H    -4.523000000    -7.110000000    -0.790000000
C    -6.167000000    -5.896000000    -0.367000000
H    -6.619000000    -6.717000000     0.183000000
C    -6.777000000    -4.680000000    -0.462000000
H    -7.772000000    -4.414000000    -0.116000000
C    -6.047000000    -3.694000000    -1.201000000
O    -6.599000000    -2.455000000    -1.349000000
C    -6.005000000    -1.280000000    -0.907000000
C    -6.248000000    -0.072000000    -1.569000000
H    -7.012000000    -0.057000000    -2.342000000
C    -5.758000000     1.120000000    -1.111000000
O    -5.980000000     2.254000000    -1.840000000
C    -5.686000000     3.529000000    -1.461000000
C    -6.399000000     4.190000000    -0.513000000
H    -7.113000000     3.604000000     0.060000000
C    -6.124000000     5.517000000    -0.208000000
H    -6.802000000     6.025000000     0.472000000
C    -5.097000000     6.221000000    -0.914000000
H    -4.760000000     7.227000000    -0.675000000
C    -4.199000000     5.453000000    -1.654000000
C    -4.538000000     4.138000000    -1.941000000
H    -3.968000000     3.473000000    -2.585000000
C     1.047000000    -0.202000000    -2.070000000
H     1.785000000    -0.753000000    -2.648000000
C     0.890000000    -0.490000000    -0.696000000
H     1.405000000    -1.210000000    -0.065000000
C     0.018000000     0.334000000    -0.045000000
H     0.088000000     0.342000000     1.014000000
C    -0.836000000     1.227000000    -0.738000000
H    -1.442000000     1.914000000    -0.151000000
C    -0.713000000     1.442000000    -2.058000000
H    -1.423000000     2.119000000    -2.527000000
C     0.216000000     0.717000000    -2.794000000
C     0.328000000     0.944000000    -4.281000000
O    -0.263000000     1.800000000    -4.910000000
O     1.103000000     0.237000000    -4.883000000
O    -2.968000000    -0.765000000    -8.205000000
H    -2.155000000    -0.392000000    -7.862000000
H    -3.610000000    -0.617000000    -7.511000000
O     1.944000000    -1.639000000    -6.520000000
H     1.667000000    -0.973000000    -5.891000000
H     2.794000000    -1.333000000    -6.836000000
O    -0.758000000     3.193000000    -9.242000000
H    -0.726000000     3.651000000   -10.081000000
H    -0.108000000     3.640000000    -8.700000000
O     2.822000000     2.461000000    -9.965000000
H     2.584000000     2.440000000    -9.038000000
H     2.899000000     1.540000000   -10.214000000
O    -2.990000000     4.169000000    -7.430000000
H    -3.580000000     4.786000000    -7.863000000
H    -2.298000000     4.008000000    -8.071000000
O    -3.176000000     2.595000000    -4.871000000
H    -3.434000000     3.122000000    -5.627000000
H    -2.257000000     2.383000000    -5.028000000
O    -3.030000000     1.836000000   -10.057000000
H    -3.358000000     1.002000000    -9.721000000
H    -2.194000000     1.964000000    -9.607000000
O    -3.488000000    -2.786000000    -5.712000000
H    -2.601000000    -2.885000000    -5.365000000
H    -3.787000000    -1.944000000    -5.370000000
O    -0.675000000    -2.078000000    -4.615000000
H    -1.257000000    -1.694000000    -3.960000000
H    -0.053000000    -1.380000000    -4.822000000
O    -5.276000000     2.469000000    -7.137000000
H    -4.461000000     2.948000000    -7.286000000
H    -5.722000000     2.963000000    -6.450000000
O     0.159000000    -3.970000000    -6.238000000
H    -0.073000000    -3.610000000    -5.382000000
H     0.619000000    -3.258000000    -6.681000000
O     2.475000000     2.274000000    -7.354000000
H     3.031000000     1.513000000    -7.187000000
H     1.772000000     2.203000000    -6.709000000
O     0.838000000    -0.629000000    -8.728000000
H     1.177000000    -1.039000000    -7.932000000
H     0.296000000     0.095000000    -8.413000000
O    -2.502000000    -1.049000000    -2.565000000
H    -2.949000000    -0.569000000    -3.262000000
H    -2.352000000    -0.395000000    -1.882000000
O    -0.888000000     1.040000000    -7.422000000
H    -0.666000000     1.288000000    -6.525000000
H    -0.939000000     1.872000000    -7.894000000
O     4.303000000     0.074000000    -7.793000000
H     4.675000000     0.419000000    -8.604000000
H     4.856000000    -0.676000000    -7.575000000
O     4.903000000     3.905000000    -7.849000000
H     5.501000000     3.217000000    -8.140000000
H     4.096000000     3.442000000    -7.624000000
O    -4.262000000    -0.177000000    -4.501000000
H    -5.212000000    -0.182000000    -4.613000000
H    -3.987000000     0.681000000    -4.823000000
O     0.399000000     4.213000000    -6.814000000
H     0.594000000     5.060000000    -6.411000000
H     0.307000000     3.612000000    -6.074000000
