215
-1470.72761
C     4.180000000    -1.042000000    -2.491000000
H     4.233000000    -2.035000000    -2.053000000
C     4.447000000     0.109000000    -1.729000000
C     4.493000000     1.322000000    -2.483000000
H     4.481000000     2.305000000    -2.020000000
C     4.318000000     0.077000000    -0.211000000
O     4.809000000    -1.201000000     0.322000000
H     3.273000000     0.195000000     0.111000000
O     4.872000000     1.246000000     0.435000000
C     4.136000000     1.948000000     1.438000000
C     3.413000000     3.025000000     1.083000000
H     3.459000000     3.514000000     0.114000000
C     2.471000000     3.525000000     1.954000000
O     1.594000000     4.564000000     1.534000000
C     2.364000000     2.975000000     3.273000000
C     1.382000000     3.565000000     4.267000000
H     1.732000000     3.301000000     5.267000000
C    -0.026000000     2.965000000     4.025000000
C    -0.402000000     1.799000000     4.733000000
H     0.302000000     1.310000000     5.401000000
H     1.443000000     4.645000000     4.113000000
C     3.138000000     1.859000000     3.658000000
H     3.075000000     1.330000000     4.605000000
C     4.020000000     1.333000000     2.703000000
C     4.610000000    -0.071000000     2.988000000
H     4.907000000    -0.147000000     4.036000000
H     5.636000000    -0.089000000     2.614000000
C     3.822000000    -1.225000000     2.536000000
C     2.992000000    -1.812000000     3.475000000
H     2.862000000    -1.503000000     4.509000000
C     3.996000000    -1.793000000     1.255000000
C     3.210000000    -2.868000000     0.916000000
H     3.269000000    -3.246000000    -0.101000000
C     2.304000000    -3.426000000     1.829000000
O     1.551000000    -4.459000000     1.353000000
C     0.153000000    -4.121000000     0.999000000
C    -0.212000000    -4.756000000    -0.353000000
C    -1.548000000    -4.765000000    -0.759000000
H    -2.338000000    -4.470000000    -0.073000000
C     0.746000000    -5.207000000    -1.187000000
H     1.814000000    -5.062000000    -1.047000000
O    -0.689000000    -4.522000000     2.124000000
H     0.010000000    -3.039000000     0.857000000
C     2.246000000    -3.003000000     3.147000000
C     1.249000000    -3.612000000     4.151000000
H     1.664000000    -3.524000000     5.157000000
H     1.304000000    -4.680000000     3.929000000
C    -0.120000000    -3.028000000     3.942000000
C    -0.460000000    -1.868000000     4.649000000
H     0.242000000    -1.429000000     5.353000000
C    -1.052000000    -3.509000000     2.976000000
C    -2.342000000    -3.010000000     2.813000000
H    -2.911000000    -3.219000000     1.911000000
C    -2.684000000    -1.867000000     3.563000000
O    -3.851000000    -1.222000000     3.278000000
C    -3.708000000    -0.068000000     2.400000000
C    -4.790000000    -0.011000000     1.297000000
C    -5.214000000    -1.198000000     0.695000000
H    -4.835000000    -2.147000000     1.067000000
C    -5.403000000     1.153000000     0.845000000
H    -5.185000000     2.068000000     1.390000000
O    -3.699000000     1.169000000     3.204000000
H    -2.746000000    -0.126000000     1.869000000
C    -1.740000000    -1.329000000     4.493000000
C    -2.019000000    -0.090000000     5.263000000
H    -1.597000000    -0.091000000     6.271000000
H    -3.104000000    -0.008000000     5.356000000
C    -1.612000000     1.176000000     4.449000000
C    -2.499000000     1.709000000     3.500000000
C    -2.094000000     2.816000000     2.754000000
H    -2.684000000     3.204000000     1.928000000
C    -0.933000000     3.464000000     3.044000000
O    -0.612000000     4.462000000     2.134000000
C     0.304000000     4.043000000     1.100000000
H     0.247000000     2.947000000     1.025000000
C    -0.096000000     4.502000000    -0.258000000
C     0.894000000     5.049000000    -1.120000000
H     1.953000000     5.152000000    -0.894000000
C    -1.365000000     4.347000000    -0.805000000
H    -2.250000000     3.984000000    -0.289000000
C    -1.656000000     4.836000000    -2.075000000
O    -2.916000000     4.580000000    -2.576000000
C    -0.721000000     5.484000000    -2.858000000
H    -0.955000000     5.954000000    -3.810000000
C     0.614000000     5.504000000    -2.418000000
O     1.599000000     6.114000000    -3.154000000
C     2.846000000     5.610000000    -3.517000000
C     3.070000000     4.236000000    -3.721000000
H     2.325000000     3.493000000    -3.448000000
C     3.797000000     6.534000000    -3.905000000
H     3.636000000     7.608000000    -3.859000000
C     5.062000000     6.068000000    -4.325000000
H     5.748000000     6.906000000    -4.424000000
C     5.360000000     4.767000000    -4.591000000
H     6.370000000     4.380000000    -4.701000000
C     4.305000000     3.831000000    -4.339000000
O     4.698000000     2.550000000    -4.554000000
C     4.510000000     1.334000000    -3.885000000
C     4.313000000     0.141000000    -4.591000000
H     4.253000000     0.131000000    -5.676000000
C     4.093000000    -1.008000000    -3.867000000
O     3.913000000    -2.220000000    -4.588000000
C     3.874000000    -3.519000000    -4.074000000
C     2.635000000    -4.163000000    -3.897000000
H     1.682000000    -3.693000000    -4.124000000
C     5.076000000    -4.187000000    -3.883000000
H     5.952000000    -3.658000000    -4.251000000
C     5.085000000    -5.523000000    -3.505000000
H     6.044000000    -6.023000000    -3.398000000
C     3.903000000    -6.197000000    -3.306000000
H     3.897000000    -7.246000000    -3.021000000
C     2.692000000    -5.529000000    -3.462000000
O     1.494000000    -6.190000000    -3.246000000
C     0.438000000    -5.731000000    -2.410000000
C    -0.895000000    -5.703000000    -2.861000000
H    -1.164000000    -6.158000000    -3.811000000
C    -1.890000000    -5.288000000    -2.028000000
O    -3.207000000    -5.402000000    -2.432000000
C    -4.315000000    -5.129000000    -1.712000000
C    -4.941000000    -3.883000000    -1.928000000
H    -4.646000000    -3.172000000    -2.696000000
C    -4.758000000    -5.986000000    -0.662000000
H    -4.219000000    -6.909000000    -0.468000000
C    -5.889000000    -5.663000000     0.095000000
H    -6.279000000    -6.429000000     0.761000000
C    -6.412000000    -4.372000000    -0.036000000
H    -7.256000000    -4.036000000     0.561000000
C    -5.959000000    -3.490000000    -1.009000000
O    -6.582000000    -2.260000000    -1.113000000
C    -6.152000000    -1.177000000    -0.436000000
C    -6.510000000     0.080000000    -0.955000000
H    -7.273000000     0.267000000    -1.706000000
C    -6.243000000     1.217000000    -0.225000000
O    -6.819000000     2.386000000    -0.746000000
C    -5.971000000     3.424000000    -0.814000000
C    -6.278000000     4.616000000    -0.151000000
H    -7.110000000     4.687000000     0.545000000
C    -5.455000000     5.663000000    -0.271000000
H    -5.743000000     6.619000000     0.158000000
C    -4.355000000     5.655000000    -1.086000000
H    -3.656000000     6.486000000    -1.133000000
C    -4.126000000     4.556000000    -1.864000000
C    -4.934000000     3.438000000    -1.772000000
H    -4.785000000     2.505000000    -2.309000000
C     0.904000000    -0.948000000    -2.902000000
H     1.116000000    -1.493000000    -3.819000000
C     1.113000000    -1.467000000    -1.677000000
H     1.568000000    -2.450000000    -1.587000000
C     0.695000000    -0.795000000    -0.519000000
H     0.830000000    -1.214000000     0.485000000
C     0.064000000     0.437000000    -0.716000000
H    -0.219000000     1.063000000     0.127000000
C    -0.138000000     0.998000000    -1.957000000
H    -0.608000000     1.975000000    -2.038000000
C     0.206000000     0.234000000    -3.054000000
C     0.029000000     0.805000000    -4.403000000
O    -0.391000000     1.943000000    -4.459000000
O     0.196000000     0.125000000    -5.378000000
O    -2.605000000    -1.843000000    -8.305000000
H    -2.447000000    -0.933000000    -8.055000000
H    -3.367000000    -1.804000000    -8.883000000
O    -0.929000000     2.724000000    -8.685000000
H    -1.125000000     3.576000000    -9.075000000
H    -0.387000000     2.281000000    -9.338000000
O    -2.770000000     5.879000000    -5.740000000
H    -2.141000000     5.182000000    -5.926000000
H    -2.445000000     6.633000000    -6.232000000
O    -2.920000000     2.230000000    -4.329000000
H    -3.067000000     3.150000000    -4.108000000
H    -1.969000000     2.128000000    -4.310000000
O    -3.353000000    -2.787000000    -5.144000000
H    -3.209000000    -2.142000000    -4.451000000
H    -3.226000000    -2.297000000    -5.956000000
O    -0.994000000    -4.073000000    -8.559000000
H    -1.662000000    -4.757000000    -8.539000000
H    -1.469000000    -3.268000000    -8.351000000
O    -4.557000000     2.004000000    -6.713000000
H    -4.558000000     1.383000000    -7.441000000
H    -3.721000000     1.854000000    -6.271000000
O     1.887000000     1.846000000    -7.016000000
H     1.874000000     1.074000000    -7.581000000
H     1.205000000     1.679000000    -6.365000000
O    -5.843000000     1.271000000    -4.366000000
H    -6.681000000     1.238000000    -4.827000000
H    -5.270000000     1.773000000    -4.946000000
O     2.093000000    -1.124000000   -10.517000000
H     1.671000000    -0.412000000   -10.037000000
H     2.256000000    -0.763000000   -11.388000000
O     4.108000000    -0.447000000    -8.727000000
H     4.039000000     0.417000000    -9.132000000
H     3.306000000    -0.899000000    -8.989000000
O    -2.627000000    -1.315000000    -1.350000000
H    -1.675000000    -1.217000000    -1.393000000
H    -2.945000000    -0.927000000    -2.165000000
O    -1.986000000     0.499000000    -7.104000000
H    -1.779000000     1.412000000    -7.300000000
H    -1.323000000     0.234000000    -6.466000000
O     1.729000000    -1.357000000    -6.904000000
H     1.036000000    -0.929000000    -6.401000000
H     2.512000000    -1.264000000    -6.362000000
O     3.957000000     3.564000000    -7.358000000
H     4.224000000     3.334000000    -6.468000000
H     3.140000000     3.085000000    -7.494000000
O     0.971000000     6.166000000    -7.038000000
H     0.583000000     5.407000000    -6.603000000
H     1.423000000     5.802000000    -7.798000000
O    -3.713000000    -0.360000000    -3.645000000
H    -4.632000000    -0.205000000    -3.428000000
H    -3.384000000     0.496000000    -3.920000000
O    -0.782000000     4.094000000    -6.045000000
H    -0.467000000     3.526000000    -5.342000000
H    -0.779000000     3.537000000    -6.823000000
O     1.826000000    -4.066000000    -7.854000000
H     0.939000000    -4.319000000    -8.108000000
H     1.737000000    -3.167000000    -7.536000000
