215
-1442.71860
C     3.733000000    -0.699000000    -2.399000000
H     3.376000000    -1.572000000    -1.859000000
C     4.190000000     0.335000000    -1.582000000
C     4.632000000     1.494000000    -2.271000000
H     5.099000000     2.305000000    -1.719000000
C     4.128000000     0.151000000    -0.082000000
O     4.604000000    -1.192000000     0.288000000
H     3.074000000     0.142000000     0.233000000
O     4.804000000     1.183000000     0.684000000
C     4.106000000     1.774000000     1.657000000
C     3.543000000     3.012000000     1.391000000
H     3.691000000     3.473000000     0.417000000
C     2.670000000     3.606000000     2.286000000
O     1.901000000     4.643000000     1.777000000
C     2.389000000     2.885000000     3.450000000
C     1.284000000     3.328000000     4.384000000
H     1.534000000     2.982000000     5.389000000
C    -0.032000000     2.756000000     4.024000000
C    -0.432000000     1.612000000     4.729000000
H     0.271000000     1.090000000     5.372000000
H     1.186000000     4.413000000     4.316000000
C     2.929000000     1.650000000     3.664000000
H     2.587000000     1.080000000     4.524000000
C     3.880000000     1.121000000     2.830000000
C     4.510000000    -0.257000000     3.157000000
H     4.612000000    -0.445000000     4.228000000
H     5.506000000    -0.289000000     2.709000000
C     3.782000000    -1.450000000     2.581000000
C     2.892000000    -2.096000000     3.449000000
H     2.970000000    -1.805000000     4.494000000
C     3.882000000    -1.864000000     1.245000000
C     3.120000000    -2.948000000     0.879000000
H     3.239000000    -3.300000000    -0.143000000
C     2.261000000    -3.677000000     1.745000000
O     1.451000000    -4.654000000     1.321000000
C     0.077000000    -4.412000000     0.987000000
C    -0.317000000    -5.139000000    -0.347000000
C    -1.583000000    -5.658000000    -0.496000000
H    -2.327000000    -5.364000000     0.240000000
C     0.550000000    -5.114000000    -1.435000000
H     1.492000000    -4.574000000    -1.376000000
O    -0.648000000    -4.807000000     2.155000000
H    -0.222000000    -3.383000000     0.738000000
C     2.142000000    -3.195000000     3.052000000
C     1.204000000    -3.755000000     4.173000000
H     1.640000000    -3.483000000     5.136000000
H     1.269000000    -4.844000000     4.193000000
C    -0.242000000    -3.285000000     3.967000000
C    -0.647000000    -2.127000000     4.729000000
H    -0.051000000    -1.701000000     5.532000000
C    -1.119000000    -3.821000000     2.974000000
C    -2.287000000    -3.108000000     2.587000000
H    -2.961000000    -3.473000000     1.815000000
C    -2.626000000    -1.984000000     3.344000000
O    -3.774000000    -1.329000000     2.951000000
C    -3.448000000    -0.127000000     2.162000000
C    -4.303000000    -0.046000000     0.894000000
C    -4.612000000    -1.236000000     0.191000000
H    -4.372000000    -2.166000000     0.701000000
C    -4.714000000     1.174000000     0.308000000
H    -4.437000000     2.121000000     0.764000000
O    -3.641000000     0.949000000     3.060000000
H    -2.368000000    -0.195000000     1.965000000
C    -1.846000000    -1.516000000     4.427000000
C    -2.165000000    -0.224000000     5.202000000
H    -1.778000000    -0.272000000     6.223000000
H    -3.247000000    -0.083000000     5.234000000
C    -1.735000000     1.044000000     4.528000000
C    -2.499000000     1.624000000     3.464000000
C    -2.103000000     2.796000000     2.882000000
H    -2.757000000     3.241000000     2.137000000
C    -0.847000000     3.328000000     3.125000000
O    -0.449000000     4.417000000     2.350000000
C     0.568000000     4.209000000     1.369000000
H     0.610000000     3.114000000     1.278000000
C     0.234000000     4.819000000     0.020000000
C     1.189000000     5.023000000    -1.035000000
H     2.209000000     4.761000000    -0.767000000
C    -1.081000000     5.081000000    -0.249000000
H    -1.859000000     4.948000000     0.498000000
C    -1.481000000     5.598000000    -1.521000000
O    -2.818000000     5.876000000    -1.786000000
C    -0.484000000     5.777000000    -2.518000000
H    -0.718000000     6.140000000    -3.516000000
C     0.865000000     5.560000000    -2.262000000
O     1.753000000     5.921000000    -3.234000000
C     3.089000000     5.576000000    -3.321000000
C     3.469000000     4.277000000    -3.612000000
H     2.608000000     3.652000000    -3.835000000
C     4.156000000     6.530000000    -3.122000000
H     3.915000000     7.576000000    -2.953000000
C     5.474000000     6.127000000    -3.392000000
H     6.327000000     6.778000000    -3.219000000
C     5.783000000     4.834000000    -3.819000000
H     6.804000000     4.521000000    -4.022000000
C     4.754000000     3.919000000    -3.868000000
O     5.119000000     2.659000000    -4.358000000
C     4.688000000     1.523000000    -3.672000000
C     4.274000000     0.448000000    -4.457000000
H     4.368000000     0.486000000    -5.539000000
C     3.780000000    -0.697000000    -3.804000000
O     3.274000000    -1.723000000    -4.557000000
C     3.278000000    -3.106000000    -4.336000000
C     2.103000000    -3.800000000    -4.109000000
H     1.169000000    -3.251000000    -4.014000000
C     4.543000000    -3.742000000    -4.472000000
H     5.395000000    -3.152000000    -4.799000000
C     4.633000000    -5.081000000    -4.495000000
H     5.456000000    -5.721000000    -4.804000000
C     3.453000000    -5.801000000    -4.262000000
H     3.432000000    -6.887000000    -4.252000000
C     2.209000000    -5.200000000    -3.945000000
O     1.021000000    -5.900000000    -3.681000000
C     0.150000000    -5.652000000    -2.704000000
C    -1.159000000    -6.129000000    -2.868000000
H    -1.467000000    -6.427000000    -3.867000000
C    -2.003000000    -6.230000000    -1.742000000
O    -3.374000000    -6.524000000    -1.926000000
C    -4.397000000    -5.670000000    -1.445000000
C    -4.425000000    -4.305000000    -1.780000000
H    -3.564000000    -3.977000000    -2.357000000
C    -5.554000000    -6.310000000    -0.983000000
H    -5.444000000    -7.376000000    -0.800000000
C    -6.712000000    -5.576000000    -0.643000000
H    -7.596000000    -6.085000000    -0.267000000
C    -6.641000000    -4.235000000    -0.894000000
H    -7.488000000    -3.606000000    -0.631000000
C    -5.478000000    -3.555000000    -1.400000000
O    -5.574000000    -2.242000000    -1.757000000
C    -5.385000000    -1.116000000    -0.982000000
C    -5.822000000     0.072000000    -1.533000000
H    -6.393000000     0.225000000    -2.445000000
C    -5.474000000     1.205000000    -0.828000000
O    -6.047000000     2.399000000    -1.262000000
C    -5.551000000     3.596000000    -0.984000000
C    -6.398000000     4.375000000    -0.264000000
H    -7.390000000     4.070000000     0.057000000
C    -6.033000000     5.659000000     0.049000000
H    -6.621000000     6.305000000     0.697000000
C    -4.857000000     6.171000000    -0.504000000
H    -4.589000000     7.202000000    -0.291000000
C    -4.003000000     5.390000000    -1.251000000
C    -4.302000000     4.036000000    -1.465000000
H    -3.632000000     3.537000000    -2.160000000
C     0.544000000    -0.380000000    -2.704000000
H     0.742000000    -0.967000000    -3.597000000
C     0.598000000    -0.909000000    -1.423000000
H     1.006000000    -1.907000000    -1.287000000
C     0.159000000    -0.227000000    -0.324000000
H     0.058000000    -0.690000000     0.638000000
C    -0.471000000     1.019000000    -0.510000000
H    -0.937000000     1.628000000     0.260000000
C    -0.567000000     1.551000000    -1.825000000
H    -1.027000000     2.517000000    -2.021000000
C    -0.132000000     0.845000000    -2.955000000
C    -0.287000000     1.413000000    -4.342000000
O    -0.974000000     2.394000000    -4.528000000
O     0.152000000     0.784000000    -5.286000000
O    -2.754000000    -2.087000000    -8.154000000
H    -1.920000000    -1.626000000    -8.064000000
H    -3.398000000    -1.498000000    -7.760000000
O     1.335000000    -1.060000000    -9.329000000
H     1.256000000    -0.137000000    -9.571000000
H     1.512000000    -1.046000000    -8.389000000
O    -0.432000000     4.814000000    -9.768000000
H    -1.272000000     4.908000000    -9.319000000
H    -0.661000000     4.472000000   -10.633000000
O    -1.767000000     2.552000000    -8.432000000
H    -1.300000000     2.818000000    -9.224000000
H    -1.733000000     1.596000000    -8.444000000
O    -2.905000000     6.677000000    -6.368000000
H    -2.185000000     6.048000000    -6.326000000
H    -2.486000000     7.508000000    -6.591000000
O    -3.425000000     1.615000000    -5.391000000
H    -3.806000000     2.406000000    -5.773000000
H    -2.562000000     1.891000000    -5.080000000
O    -3.513000000    -3.232000000    -5.112000000
H    -3.089000000    -2.623000000    -4.507000000
H    -4.024000000    -2.672000000    -5.697000000
O    -5.434000000     2.558000000    -7.061000000
H    -6.209000000     2.983000000    -6.693000000
H    -5.337000000     2.948000000    -7.930000000
O     1.984000000     2.215000000    -6.650000000
H     1.563000000     2.292000000    -7.506000000
H     1.362000000     1.716000000    -6.121000000
O    -6.149000000     2.185000000    -4.260000000
H    -6.699000000     2.184000000    -5.043000000
H    -5.309000000     1.837000000    -4.558000000
O     3.958000000     0.429000000    -8.161000000
H     4.232000000     0.625000000    -9.056000000
H     3.376000000     1.151000000    -7.925000000
O    -2.291000000    -1.735000000    -2.987000000
H    -1.607000000    -1.257000000    -2.518000000
H    -3.108000000    -1.438000000    -2.585000000
O    -1.696000000     0.144000000    -7.076000000
H    -2.428000000     0.381000000    -6.508000000
H    -0.916000000     0.317000000    -6.548000000
O     1.444000000    -1.084000000    -6.605000000
H     0.955000000    -0.439000000    -6.094000000
H     2.333000000    -1.046000000    -6.252000000
O     3.666000000     4.353000000    -6.773000000
H     3.911000000     4.408000000    -5.850000000
H     2.905000000     3.772000000    -6.784000000
O     1.030000000     5.906000000    -7.688000000
H     0.870000000     5.382000000    -6.903000000
H     0.688000000     5.372000000    -8.406000000
O    -4.681000000    -0.733000000    -5.699000000
H    -4.989000000    -0.678000000    -6.604000000
H    -4.240000000     0.102000000    -5.544000000
O    -1.179000000     4.403000000    -6.355000000
H    -1.049000000     3.845000000    -5.588000000
H    -1.303000000     3.790000000    -7.080000000
O    -0.177000000    -3.871000000    -6.687000000
H    -1.089000000    -3.583000000    -6.644000000
H     0.329000000    -3.059000000    -6.718000000
