215
-1452.71687
C     4.699000000    -1.039000000    -2.126000000
H     4.813000000    -2.067000000    -1.794000000
C     4.453000000     0.006000000    -1.211000000
C     4.409000000     1.349000000    -1.707000000
H     4.100000000     2.086000000    -0.970000000
C     4.177000000    -0.218000000     0.294000000
O     4.655000000    -1.439000000     0.814000000
H     3.078000000    -0.264000000     0.306000000
O     4.639000000     0.825000000     1.108000000
C     3.761000000     1.343000000     2.125000000
C     3.111000000     2.529000000     1.826000000
H     3.252000000     3.021000000     0.867000000
C     2.136000000     2.995000000     2.710000000
O     1.485000000     4.123000000     2.364000000
C     1.866000000     2.344000000     3.975000000
C     0.684000000     2.790000000     4.799000000
H     0.784000000     2.442000000     5.829000000
C    -0.663000000     2.272000000     4.230000000
C    -1.226000000     1.091000000     4.725000000
H    -0.726000000     0.484000000     5.475000000
H     0.610000000     3.876000000     4.714000000
C     2.594000000     1.217000000     4.297000000
H     2.225000000     0.639000000     5.140000000
C     3.520000000     0.701000000     3.369000000
C     4.126000000    -0.691000000     3.616000000
H     4.064000000    -0.957000000     4.674000000
H     5.189000000    -0.610000000     3.379000000
C     3.455000000    -1.870000000     2.955000000
C     2.396000000    -2.470000000     3.575000000
H     2.027000000    -2.115000000     4.534000000
C     3.823000000    -2.187000000     1.622000000
C     3.137000000    -3.209000000     0.966000000
H     3.332000000    -3.345000000    -0.095000000
C     2.079000000    -3.785000000     1.628000000
O     1.374000000    -4.620000000     0.911000000
C     0.048000000    -4.168000000     0.405000000
C    -0.152000000    -4.575000000    -1.021000000
C    -1.416000000    -4.537000000    -1.586000000
H    -2.325000000    -4.359000000    -1.017000000
C     0.953000000    -4.734000000    -1.879000000
H     1.962000000    -4.593000000    -1.501000000
O    -1.083000000    -4.696000000     1.245000000
H    -0.004000000    -3.069000000     0.402000000
C     1.679000000    -3.482000000     2.916000000
C     0.580000000    -4.202000000     3.635000000
H     0.604000000    -4.218000000     4.727000000
H     0.602000000    -5.234000000     3.279000000
C    -0.746000000    -3.438000000     3.323000000
C    -1.249000000    -2.490000000     4.169000000
H    -0.683000000    -2.275000000     5.071000000
C    -1.505000000    -3.851000000     2.229000000
C    -2.656000000    -3.188000000     1.834000000
H    -3.111000000    -3.396000000     0.869000000
C    -3.138000000    -2.190000000     2.680000000
O    -4.188000000    -1.474000000     2.294000000
C    -3.903000000    -0.286000000     1.570000000
C    -4.571000000    -0.062000000     0.264000000
C    -5.000000000    -1.149000000    -0.482000000
H    -5.085000000    -2.136000000    -0.035000000
C    -4.426000000     1.227000000    -0.291000000
H    -4.075000000     2.062000000     0.309000000
O    -4.037000000     0.799000000     2.492000000
H    -2.826000000    -0.424000000     1.397000000
C    -2.485000000    -1.888000000     3.897000000
C    -3.020000000    -0.709000000     4.795000000
H    -2.629000000    -0.802000000     5.810000000
H    -4.108000000    -0.707000000     4.894000000
C    -2.424000000     0.561000000     4.173000000
C    -2.959000000     1.231000000     3.058000000
C    -2.347000000     2.362000000     2.548000000
H    -2.761000000     2.948000000     1.731000000
C    -1.310000000     2.894000000     3.144000000
O    -0.848000000     4.092000000     2.691000000
C     0.206000000     3.964000000     1.733000000
H     0.174000000     2.994000000     1.215000000
C     0.078000000     5.076000000     0.658000000
C     1.147000000     5.438000000    -0.151000000
H     2.156000000     5.076000000     0.030000000
C    -1.265000000     5.515000000     0.315000000
H    -2.113000000     5.197000000     0.915000000
C    -1.437000000     6.368000000    -0.771000000
O    -2.722000000     6.716000000    -1.090000000
C    -0.377000000     6.862000000    -1.477000000
H    -0.554000000     7.597000000    -2.259000000
C     0.887000000     6.319000000    -1.223000000
O     1.925000000     6.610000000    -2.123000000
C     3.069000000     5.896000000    -2.161000000
C     3.261000000     4.811000000    -2.942000000
H     2.436000000     4.440000000    -3.545000000
C     4.041000000     6.388000000    -1.369000000
H     3.779000000     7.252000000    -0.762000000
C     5.275000000     5.730000000    -1.315000000
H     6.120000000     6.161000000    -0.785000000
C     5.493000000     4.556000000    -2.092000000
H     6.444000000     4.031000000    -2.054000000
C     4.478000000     4.080000000    -2.877000000
O     4.552000000     2.922000000    -3.576000000
C     4.676000000     1.613000000    -3.061000000
C     4.787000000     0.560000000    -3.980000000
H     4.771000000     0.742000000    -5.051000000
C     4.793000000    -0.784000000    -3.503000000
O     5.011000000    -1.767000000    -4.443000000
C     4.710000000    -3.059000000    -4.233000000
C     3.347000000    -3.496000000    -4.128000000
H     2.514000000    -2.797000000    -4.118000000
C     5.765000000    -3.945000000    -3.985000000
H     6.773000000    -3.538000000    -3.959000000
C     5.502000000    -5.210000000    -3.652000000
H     6.364000000    -5.841000000    -3.451000000
C     4.173000000    -5.751000000    -3.731000000
H     4.027000000    -6.808000000    -3.521000000
C     3.126000000    -4.863000000    -3.933000000
O     1.911000000    -5.488000000    -4.070000000
C     0.848000000    -5.175000000    -3.208000000
C    -0.455000000    -5.234000000    -3.704000000
H    -0.587000000    -5.508000000    -4.747000000
C    -1.554000000    -5.033000000    -2.892000000
O    -2.814000000    -5.291000000    -3.414000000
C    -3.990000000    -4.903000000    -2.798000000
C    -4.355000000    -3.574000000    -2.794000000
H    -3.765000000    -2.899000000    -3.409000000
C    -4.901000000    -5.885000000    -2.340000000
H    -4.685000000    -6.927000000    -2.116000000
C    -6.149000000    -5.553000000    -1.909000000
H    -6.869000000    -6.293000000    -1.567000000
C    -6.553000000    -4.216000000    -1.952000000
H    -7.548000000    -3.906000000    -1.644000000
C    -5.655000000    -3.251000000    -2.414000000
O    -6.041000000    -1.916000000    -2.603000000
C    -5.499000000    -0.920000000    -1.804000000
C    -5.418000000     0.380000000    -2.389000000
H    -5.909000000     0.563000000    -3.341000000
C    -4.880000000     1.396000000    -1.582000000
O    -4.721000000     2.659000000    -2.224000000
C    -4.766000000     3.806000000    -1.538000000
C    -5.925000000     4.140000000    -0.864000000
H    -6.749000000     3.431000000    -0.847000000
C    -6.018000000     5.387000000    -0.173000000
H    -6.925000000     5.588000000     0.390000000
C    -4.918000000     6.252000000    -0.240000000
H    -4.863000000     7.180000000     0.324000000
C    -3.812000000     5.939000000    -1.009000000
C    -3.739000000     4.680000000    -1.561000000
H    -2.828000000     4.437000000    -2.101000000
C    -1.231000000     0.105000000    -1.475000000
H    -1.987000000    -0.646000000    -1.692000000
C    -0.490000000    -0.110000000    -0.277000000
H    -0.773000000    -0.879000000     0.437000000
C     0.616000000     0.692000000     0.044000000
H     1.253000000     0.425000000     0.851000000
C     0.926000000     1.754000000    -0.843000000
H     1.733000000     2.434000000    -0.582000000
C     0.222000000     1.932000000    -2.045000000
H     0.536000000     2.724000000    -2.720000000
C    -0.860000000     1.112000000    -2.343000000
C    -1.529000000     1.290000000    -3.701000000
O    -1.315000000     2.243000000    -4.380000000
O    -2.315000000     0.441000000    -4.070000000
O    -5.910000000    -1.467000000    -5.982000000
H    -5.354000000    -0.693000000    -6.073000000
H    -6.038000000    -1.778000000    -6.878000000
O    -1.393000000     0.568000000    -9.781000000
H    -1.924000000     1.055000000    -9.150000000
H    -1.845000000    -0.270000000    -9.878000000
O     1.289000000    -0.736000000    -4.469000000
H     0.989000000    -0.990000000    -5.342000000
H     0.496000000    -0.439000000    -4.021000000
O    -1.602000000     6.591000000    -6.242000000
H    -1.960000000     6.109000000    -6.987000000
H    -2.362000000     6.777000000    -5.689000000
O    -3.623000000     4.070000000    -5.087000000
H    -3.522000000     3.687000000    -5.958000000
H    -3.134000000     3.484000000    -4.509000000
O    -2.368000000     4.640000000    -8.480000000
H    -1.919000000     4.999000000    -9.245000000
H    -2.958000000     3.976000000    -8.839000000
O    -3.071000000    -1.848000000    -5.465000000
H    -3.973000000    -1.647000000    -5.716000000
H    -2.767000000    -1.060000000    -5.015000000
O    -4.558000000     0.448000000    -8.118000000
H    -4.124000000     0.805000000    -7.343000000
H    -5.491000000     0.477000000    -7.905000000
O     0.574000000     3.209000000    -9.231000000
H     0.042000000     3.624000000    -8.552000000
H     0.521000000     2.273000000    -9.038000000
O     1.590000000     6.813000000    -4.974000000
H     0.809000000     7.320000000    -4.755000000
H     1.439000000     5.957000000    -4.573000000
O     3.126000000    -0.438000000    -6.998000000
H     2.595000000     0.341000000    -6.832000000
H     3.612000000    -0.574000000    -6.184000000
O    -4.370000000     1.000000000    -5.518000000
H    -4.499000000     1.915000000    -5.271000000
H    -3.721000000     0.672000000    -4.896000000
O    -0.505000000     1.522000000    -6.862000000
H    -0.985000000     1.736000000    -6.062000000
H    -0.480000000     0.565000000    -6.878000000
O    -0.341000000    -1.524000000    -6.719000000
H     0.019000000    -2.395000000    -6.881000000
H    -1.271000000    -1.606000000    -6.930000000
O     2.272000000     2.206000000    -6.145000000
H     1.446000000     2.682000000    -6.233000000
H     2.103000000     1.557000000    -5.462000000
O    -6.635000000     4.375000000    -4.458000000
H    -6.609000000     5.061000000    -5.125000000
H    -5.780000000     4.423000000    -4.031000000
O    -0.138000000     4.236000000    -5.439000000
H    -0.643000000     3.575000000    -4.965000000
H    -0.729000000     4.985000000    -5.508000000
O    -2.005000000    -4.237000000    -6.452000000
H    -2.353000000    -3.450000000    -6.032000000
H    -1.842000000    -3.973000000    -7.357000000
O    -3.823000000     6.740000000    -4.961000000
H    -4.675000000     6.848000000    -5.384000000
H    -3.686000000     5.793000000    -4.935000000
