215
-1465.67686
C     4.678000000    -1.437000000    -1.516000000
H     4.283000000    -2.381000000    -1.151000000
C     4.728000000    -0.340000000    -0.691000000
C     5.120000000     0.945000000    -1.200000000
H     5.124000000     1.792000000    -0.518000000
C     4.176000000    -0.431000000     0.738000000
O     4.450000000    -1.675000000     1.305000000
H     3.084000000    -0.463000000     0.611000000
O     4.529000000     0.646000000     1.612000000
C     3.592000000     1.142000000     2.573000000
C     3.156000000     2.424000000     2.256000000
H     3.487000000     2.924000000     1.349000000
C     2.064000000     2.909000000     2.967000000
O     1.501000000     4.040000000     2.540000000
C     1.589000000     2.198000000     4.082000000
C     0.535000000     2.825000000     4.949000000
H     0.672000000     2.413000000     5.951000000
C    -0.824000000     2.525000000     4.391000000
C    -1.400000000     1.266000000     4.705000000
H    -0.925000000     0.632000000     5.449000000
H     0.725000000     3.898000000     5.030000000
C     2.165000000     0.985000000     4.390000000
H     1.779000000     0.473000000     5.268000000
C     3.194000000     0.416000000     3.699000000
C     3.800000000    -0.963000000     4.072000000
H     3.626000000    -1.239000000     5.114000000
H     4.862000000    -1.009000000     3.820000000
C     3.127000000    -2.045000000     3.303000000
C     1.985000000    -2.668000000     3.853000000
H     1.578000000    -2.382000000     4.819000000
C     3.461000000    -2.387000000     1.992000000
C     2.823000000    -3.337000000     1.237000000
H     3.147000000    -3.562000000     0.224000000
C     1.731000000    -3.973000000     1.797000000
O     1.038000000    -4.782000000     0.923000000
C    -0.135000000    -4.195000000     0.216000000
C    -0.222000000    -4.651000000    -1.257000000
C    -1.397000000    -4.305000000    -1.968000000
H    -2.265000000    -3.905000000    -1.451000000
C     0.892000000    -5.178000000    -1.908000000
H     1.847000000    -5.413000000    -1.444000000
O    -1.225000000    -4.649000000     1.044000000
H    -0.086000000    -3.097000000     0.155000000
C     1.316000000    -3.649000000     3.087000000
C     0.108000000    -4.341000000     3.704000000
H     0.247000000    -4.378000000     4.786000000
H     0.015000000    -5.377000000     3.373000000
C    -1.106000000    -3.570000000     3.206000000
C    -1.547000000    -2.481000000     3.937000000
H    -1.132000000    -2.343000000     4.932000000
C    -1.737000000    -3.764000000     1.966000000
C    -2.899000000    -3.037000000     1.570000000
H    -3.366000000    -3.217000000     0.605000000
C    -3.332000000    -1.997000000     2.359000000
O    -4.293000000    -1.103000000     1.856000000
C    -3.852000000     0.168000000     1.251000000
C    -4.543000000     0.507000000    -0.021000000
C    -5.041000000    -0.533000000    -0.835000000
H    -5.115000000    -1.563000000    -0.496000000
C    -4.510000000     1.817000000    -0.515000000
H    -4.164000000     2.619000000     0.131000000
O    -4.175000000     1.229000000     2.237000000
H    -2.775000000     0.144000000     1.025000000
C    -2.652000000    -1.669000000     3.576000000
C    -3.127000000    -0.507000000     4.392000000
H    -2.902000000    -0.832000000     5.410000000
H    -4.213000000    -0.394000000     4.379000000
C    -2.542000000     0.815000000     4.015000000
C    -3.045000000     1.607000000     2.978000000
C    -2.482000000     2.815000000     2.701000000
H    -3.016000000     3.348000000     1.918000000
C    -1.377000000     3.313000000     3.366000000
O    -0.725000000     4.373000000     2.726000000
C     0.244000000     3.916000000     1.834000000
H     0.013000000     2.863000000     1.617000000
C     0.091000000     4.653000000     0.501000000
C     1.130000000     4.527000000    -0.458000000
H     2.013000000     3.940000000    -0.220000000
C    -1.040000000     5.478000000     0.247000000
H    -1.866000000     5.584000000     0.945000000
C    -1.172000000     6.107000000    -0.966000000
O    -2.285000000     6.785000000    -1.404000000
C    -0.173000000     5.933000000    -1.918000000
H    -0.219000000     6.447000000    -2.875000000
C     0.958000000     5.164000000    -1.678000000
O     1.909000000     4.983000000    -2.653000000
C     3.236000000     4.819000000    -2.384000000
C     3.857000000     3.626000000    -2.681000000
H     3.298000000     2.757000000    -3.016000000
C     3.948000000     5.828000000    -1.679000000
H     3.535000000     6.802000000    -1.432000000
C     5.270000000     5.627000000    -1.454000000
H     5.840000000     6.434000000    -1.002000000
C     5.982000000     4.540000000    -1.906000000
H     7.032000000     4.376000000    -1.675000000
C     5.278000000     3.562000000    -2.596000000
O     5.904000000     2.339000000    -3.033000000
C     5.450000000     1.082000000    -2.503000000
C     5.565000000    -0.042000000    -3.328000000
H     5.825000000     0.152000000    -4.366000000
C     5.160000000    -1.307000000    -2.844000000
O     5.152000000    -2.345000000    -3.756000000
C     4.817000000    -3.702000000    -3.463000000
C     3.491000000    -4.035000000    -3.674000000
H     2.691000000    -3.370000000    -3.991000000
C     5.781000000    -4.617000000    -3.070000000
H     6.794000000    -4.264000000    -2.896000000
C     5.489000000    -5.969000000    -3.326000000
H     6.181000000    -6.768000000    -3.074000000
C     4.148000000    -6.356000000    -3.569000000
H     4.024000000    -7.436000000    -3.576000000
C     3.165000000    -5.372000000    -3.812000000
O     1.858000000    -5.742000000    -4.046000000
C     0.814000000    -5.322000000    -3.287000000
C    -0.403000000    -5.134000000    -3.929000000
H    -0.487000000    -5.426000000    -4.973000000
C    -1.464000000    -4.477000000    -3.316000000
O    -2.655000000    -4.401000000    -4.007000000
C    -3.835000000    -4.061000000    -3.416000000
C    -4.275000000    -2.761000000    -3.421000000
H    -3.736000000    -1.921000000    -3.852000000
C    -4.646000000    -5.048000000    -2.878000000
H    -4.329000000    -6.088000000    -2.910000000
C    -5.860000000    -4.716000000    -2.333000000
H    -6.452000000    -5.535000000    -1.933000000
C    -6.355000000    -3.443000000    -2.261000000
H    -7.354000000    -3.191000000    -1.913000000
C    -5.579000000    -2.492000000    -2.924000000
O    -6.043000000    -1.201000000    -2.911000000
C    -5.596000000    -0.260000000    -2.031000000
C    -5.547000000     1.031000000    -2.489000000
H    -5.963000000     1.218000000    -3.475000000
C    -5.150000000     2.032000000    -1.711000000
O    -5.455000000     3.329000000    -2.212000000
C    -5.141000000     4.503000000    -1.577000000
C    -6.160000000     5.281000000    -1.009000000
H    -7.142000000     4.846000000    -0.843000000
C    -5.808000000     6.518000000    -0.466000000
H    -6.491000000     7.029000000     0.208000000
C    -4.520000000     6.993000000    -0.574000000
H    -4.248000000     7.917000000    -0.071000000
C    -3.551000000     6.311000000    -1.305000000
C    -3.866000000     5.049000000    -1.760000000
H    -3.145000000     4.390000000    -2.238000000
C    -1.581000000    -0.472000000    -1.904000000
H    -2.242000000    -1.141000000    -2.449000000
C    -1.254000000    -0.775000000    -0.605000000
H    -1.559000000    -1.664000000    -0.058000000
C    -0.399000000     0.115000000     0.097000000
H    -0.284000000    -0.069000000     1.135000000
C     0.246000000     1.174000000    -0.621000000
H     1.030000000     1.798000000    -0.199000000
C    -0.151000000     1.486000000    -1.932000000
H     0.348000000     2.305000000    -2.444000000
C    -1.039000000     0.680000000    -2.580000000
C    -1.461000000     0.940000000    -4.017000000
O    -0.749000000     1.712000000    -4.661000000
O    -2.301000000     0.271000000    -4.543000000
O    -4.612000000    -1.086000000    -8.612000000
H    -4.422000000    -0.496000000    -7.883000000
H    -5.492000000    -0.838000000    -8.897000000
O     1.565000000     6.105000000    -5.430000000
H     1.822000000     5.882000000    -6.325000000
H     1.631000000     5.279000000    -4.950000000
O     0.515000000     3.578000000    -8.638000000
H     1.106000000     2.824000000    -8.640000000
H     1.094000000     4.336000000    -8.564000000
O     2.842000000     0.101000000    -5.684000000
H     3.015000000    -0.763000000    -6.059000000
H     2.071000000    -0.028000000    -5.131000000
O    -1.829000000     4.632000000    -9.276000000
H    -1.528000000     5.539000000    -9.222000000
H    -1.180000000     4.134000000    -8.779000000
O    -2.579000000     3.233000000    -5.873000000
H    -2.566000000     2.808000000    -6.730000000
H    -1.757000000     2.967000000    -5.461000000
O    -0.985000000    -1.622000000    -5.992000000
H    -1.657000000    -2.069000000    -6.508000000
H    -1.477000000    -1.046000000    -5.407000000
O    -2.368000000     0.768000000    -9.867000000
H    -2.387000000     0.140000000    -9.146000000
H    -1.462000000     1.078000000    -9.892000000
O    -2.624000000    -3.729000000    -6.808000000
H    -2.651000000    -3.707000000    -5.852000000
H    -2.327000000    -4.614000000    -7.019000000
O     4.218000000     3.013000000    -5.712000000
H     3.407000000     3.514000000    -5.806000000
H     3.940000000     2.175000000    -5.342000000
O    -4.110000000    -0.066000000    -6.349000000
H    -4.808000000     0.116000000    -5.720000000
H    -3.302000000     0.026000000    -5.844000000
O     3.089000000    -2.411000000    -6.756000000
H     3.208000000    -3.307000000    -7.071000000
H     2.236000000    -2.147000000    -7.101000000
O    -1.090000000     1.077000000    -7.404000000
H    -0.202000000     0.847000000    -7.676000000
H    -1.071000000     1.017000000    -6.449000000
O     0.759000000    -1.440000000    -8.063000000
H     0.212000000    -1.966000000    -8.645000000
H     0.271000000    -1.406000000    -7.240000000
O     2.164000000     1.534000000    -8.113000000
H     2.551000000     1.129000000    -7.337000000
H     2.854000000     1.491000000    -8.775000000
O    -5.168000000     3.740000000    -4.995000000
H    -5.085000000     3.470000000    -4.080000000
H    -4.372000000     3.412000000    -5.414000000
O     1.427000000     3.216000000    -5.573000000
H     1.044000000     2.455000000    -5.136000000
H     0.866000000     3.361000000    -6.335000000
O    -7.003000000    -1.695000000    -6.063000000
H    -6.105000000    -1.566000000    -5.759000000
H    -7.473000000    -0.918000000    -5.759000000
O    -2.422000000     6.161000000    -5.738000000
H    -1.915000000     6.350000000    -6.528000000
H    -2.496000000     5.207000000    -5.725000000
