215
-1474.82804
C     5.233000000    -0.843000000    -1.424000000
H     5.209000000    -1.836000000    -0.983000000
C     4.865000000     0.251000000    -0.564000000
C     4.847000000     1.541000000    -1.127000000
H     4.645000000     2.398000000    -0.490000000
C     4.327000000    -0.012000000     0.806000000
O     4.796000000    -1.247000000     1.289000000
H     3.235000000    -0.024000000     0.671000000
O     4.689000000     1.024000000     1.710000000
C     3.709000000     1.431000000     2.586000000
C     3.018000000     2.554000000     2.131000000
H     3.445000000     3.182000000     1.354000000
C     1.875000000     3.014000000     2.876000000
O     1.206000000     4.138000000     2.397000000
C     1.481000000     2.359000000     4.032000000
C     0.319000000     2.837000000     4.865000000
H     0.340000000     2.449000000     5.885000000
C    -0.977000000     2.239000000     4.323000000
C    -1.477000000     0.946000000     4.695000000
H    -0.940000000     0.372000000     5.447000000
H     0.349000000     3.928000000     4.902000000
C     2.184000000     1.133000000     4.363000000
H     1.733000000     0.606000000     5.200000000
C     3.244000000     0.657000000     3.657000000
C     4.034000000    -0.649000000     3.926000000
H     3.903000000    -0.850000000     4.991000000
H     5.106000000    -0.620000000     3.717000000
C     3.447000000    -1.791000000     3.175000000
C     2.351000000    -2.520000000     3.722000000
H     2.040000000    -2.378000000     4.754000000
C     3.923000000    -2.070000000     1.912000000
C     3.352000000    -2.990000000     1.162000000
H     3.696000000    -3.110000000     0.138000000
C     2.145000000    -3.623000000     1.550000000
O     1.413000000    -4.344000000     0.674000000
C     0.107000000    -3.853000000     0.192000000
C     0.016000000    -4.118000000    -1.320000000
C    -1.243000000    -3.922000000    -1.970000000
H    -2.072000000    -3.515000000    -1.396000000
C     1.239000000    -4.356000000    -2.064000000
H     2.201000000    -4.420000000    -1.562000000
O    -0.994000000    -4.498000000     0.788000000
H     0.048000000    -2.777000000     0.415000000
C     1.685000000    -3.466000000     2.874000000
C     0.505000000    -4.244000000     3.400000000
H     0.633000000    -4.335000000     4.481000000
H     0.547000000    -5.246000000     2.969000000
C    -0.860000000    -3.663000000     3.106000000
C    -1.443000000    -2.805000000     4.089000000
H    -0.997000000    -2.681000000     5.073000000
C    -1.590000000    -3.957000000     1.910000000
C    -2.819000000    -3.340000000     1.647000000
H    -3.297000000    -3.516000000     0.687000000
C    -3.299000000    -2.465000000     2.562000000
O    -4.349000000    -1.738000000     2.168000000
C    -4.012000000    -0.488000000     1.539000000
C    -4.663000000    -0.359000000     0.138000000
C    -5.345000000    -1.357000000    -0.608000000
H    -5.533000000    -2.340000000    -0.184000000
C    -4.586000000     0.866000000    -0.480000000
H    -4.031000000     1.714000000    -0.086000000
O    -4.362000000     0.619000000     2.421000000
H    -2.935000000    -0.263000000     1.541000000
C    -2.598000000    -2.155000000     3.737000000
C    -3.064000000    -1.026000000     4.683000000
H    -2.678000000    -1.169000000     5.694000000
H    -4.155000000    -1.044000000     4.716000000
C    -2.638000000     0.415000000     4.184000000
C    -3.286000000     1.107000000     3.147000000
C    -2.864000000     2.351000000     2.764000000
H    -3.288000000     2.895000000     1.924000000
C    -1.702000000     2.905000000     3.401000000
O    -1.157000000     4.042000000     2.785000000
C    -0.112000000     3.863000000     1.782000000
H    -0.096000000     2.821000000     1.430000000
C    -0.332000000     4.711000000     0.595000000
C     0.757000000     4.862000000    -0.263000000
H     1.680000000     4.312000000    -0.098000000
C    -1.587000000     5.234000000     0.294000000
H    -2.414000000     4.955000000     0.942000000
C    -1.737000000     6.031000000    -0.841000000
O    -2.973000000     6.476000000    -1.201000000
C    -0.627000000     6.293000000    -1.731000000
H    -0.850000000     6.884000000    -2.615000000
C     0.612000000     5.739000000    -1.326000000
O     1.668000000     5.997000000    -2.265000000
C     2.927000000     5.548000000    -1.943000000
C     3.520000000     4.583000000    -2.747000000
H     2.992000000     4.200000000    -3.617000000
C     3.614000000     6.283000000    -1.014000000
H     3.143000000     7.021000000    -0.369000000
C     4.981000000     5.895000000    -0.771000000
H     5.567000000     6.503000000    -0.086000000
C     5.541000000     4.786000000    -1.447000000
H     6.539000000     4.410000000    -1.237000000
C     4.814000000     4.104000000    -2.446000000
O     5.209000000     2.949000000    -3.090000000
C     5.164000000     1.687000000    -2.503000000
C     5.447000000     0.574000000    -3.342000000
H     5.606000000     0.607000000    -4.417000000
C     5.568000000    -0.723000000    -2.772000000
O     6.062000000    -1.821000000    -3.493000000
C     5.465000000    -3.101000000    -3.445000000
C     4.095000000    -3.224000000    -3.710000000
H     3.480000000    -2.420000000    -4.105000000
C     6.251000000    -4.224000000    -3.160000000
H     7.319000000    -4.173000000    -2.966000000
C     5.698000000    -5.472000000    -3.124000000
H     6.318000000    -6.337000000    -2.907000000
C     4.308000000    -5.669000000    -3.485000000
H     4.022000000    -6.699000000    -3.687000000
C     3.577000000    -4.512000000    -3.848000000
O     2.289000000    -4.742000000    -4.216000000
C     1.162000000    -4.578000000    -3.425000000
C    -0.105000000    -4.443000000    -4.056000000
H    -0.055000000    -4.565000000    -5.135000000
C    -1.245000000    -4.041000000    -3.363000000
O    -2.320000000    -3.808000000    -4.186000000
C    -3.610000000    -4.074000000    -3.850000000
C    -4.449000000    -3.024000000    -3.455000000
H    -4.036000000    -2.019000000    -3.428000000
C    -4.085000000    -5.339000000    -3.699000000
H    -3.488000000    -6.199000000    -3.991000000
C    -5.431000000    -5.580000000    -3.234000000
H    -5.775000000    -6.602000000    -3.103000000
C    -6.268000000    -4.546000000    -2.943000000
H    -7.263000000    -4.648000000    -2.516000000
C    -5.727000000    -3.245000000    -3.047000000
O    -6.509000000    -2.211000000    -2.543000000
C    -5.881000000    -1.162000000    -1.845000000
C    -5.893000000     0.130000000    -2.420000000
H    -6.307000000     0.470000000    -3.366000000
C    -5.166000000     1.114000000    -1.727000000
O    -5.020000000     2.319000000    -2.308000000
C    -5.040000000     3.561000000    -1.648000000
C    -6.236000000     4.063000000    -1.158000000
H    -7.112000000     3.421000000    -1.120000000
C    -6.418000000     5.371000000    -0.684000000
H    -7.418000000     5.721000000    -0.443000000
C    -5.292000000     6.218000000    -0.603000000
H    -5.399000000     7.281000000    -0.407000000
C    -4.058000000     5.696000000    -1.060000000
C    -3.900000000     4.391000000    -1.589000000
H    -2.995000000     4.112000000    -2.122000000
C    -1.332000000     0.068000000    -1.840000000
H    -2.145000000    -0.341000000    -2.436000000
C    -0.967000000    -0.377000000    -0.550000000
H    -1.629000000    -1.071000000    -0.039000000
C     0.175000000     0.102000000     0.069000000
H     0.340000000    -0.235000000     1.085000000
C     0.950000000     1.034000000    -0.635000000
H     1.802000000     1.572000000    -0.228000000
C     0.539000000     1.556000000    -1.857000000
H     1.024000000     2.435000000    -2.272000000
C    -0.608000000     1.100000000    -2.439000000
C    -0.932000000     1.468000000    -3.888000000
O    -0.193000000     2.238000000    -4.468000000
O    -1.963000000     1.011000000    -4.444000000
O    -0.619000000     1.603000000   -10.404000000
H     0.070000000     2.176000000   -10.066000000
H    -0.682000000     0.898000000    -9.759000000
O    -4.887000000    -0.694000000    -8.317000000
H    -4.633000000    -0.688000000    -7.394000000
H    -5.403000000     0.105000000    -8.428000000
O    -1.169000000     4.511000000    -9.290000000
H    -0.889000000     4.047000000    -8.501000000
H    -0.376000000     4.945000000    -9.607000000
O     2.224000000     1.116000000    -5.072000000
H     1.953000000     0.213000000    -4.907000000
H     1.569000000     1.649000000    -4.621000000
O    -3.512000000     3.204000000    -4.552000000
H    -4.299000000     2.861000000    -4.129000000
H    -2.946000000     2.440000000    -4.661000000
O    -4.418000000     4.773000000    -6.449000000
H    -3.885000000     4.508000000    -5.699000000
H    -5.016000000     4.039000000    -6.590000000
O    -3.082000000     7.524000000    -4.084000000
H    -3.165000000     7.127000000    -3.217000000
H    -2.358000000     7.050000000    -4.495000000
O     2.748000000    -2.368000000    -6.407000000
H     2.052000000    -1.945000000    -5.904000000
H     2.466000000    -3.279000000    -6.487000000
O    -1.880000000    -1.604000000    -6.193000000
H    -1.948000000    -2.544000000    -6.362000000
H    -2.786000000    -1.298000000    -6.170000000
O    -3.447000000     2.530000000    -9.615000000
H    -2.992000000     2.223000000    -8.831000000
H    -3.088000000     3.402000000    -9.774000000
O     3.053000000     1.261000000    -7.467000000
H     2.733000000     1.342000000    -6.568000000
H     3.990000000     1.447000000    -7.406000000
O    -4.070000000    -0.113000000    -5.385000000
H    -4.705000000     0.599000000    -5.468000000
H    -3.344000000     0.270000000    -4.893000000
O     0.645000000    -1.507000000    -4.819000000
H    -0.250000000    -1.582000000    -5.151000000
H     0.598000000    -1.852000000    -3.927000000
O    -1.814000000     1.191000000    -7.102000000
H    -1.833000000     0.259000000    -7.317000000
H    -1.666000000     1.216000000    -6.157000000
O    -0.138000000    -0.995000000    -8.668000000
H    -0.178000000    -1.207000000    -7.735000000
H     0.766000000    -0.716000000    -8.812000000
O     0.676000000     2.653000000    -7.869000000
H    -0.043000000     2.246000000    -7.386000000
H     1.421000000     2.069000000    -7.725000000
O    -6.405000000     1.739000000    -5.563000000
H    -6.870000000     0.979000000    -5.912000000
H    -6.948000000     2.038000000    -4.834000000
O     0.757000000     4.276000000    -5.560000000
H     0.526000000     3.537000000    -4.998000000
H     0.863000000     3.892000000    -6.430000000
O    -1.598000000     5.448000000    -4.744000000
H    -0.726000000     5.345000000    -5.124000000
H    -1.827000000     4.574000000    -4.428000000
