215
-1423.84751
C     4.980000000    -0.342000000    -1.797000000
H     4.776000000    -1.404000000    -1.684000000
C     4.772000000     0.548000000    -0.779000000
C     4.978000000     1.870000000    -1.120000000
H     4.740000000     2.665000000    -0.417000000
C     4.312000000     0.094000000     0.655000000
O     4.807000000    -1.112000000     1.123000000
H     3.213000000     0.111000000     0.650000000
O     4.755000000     1.164000000     1.592000000
C     3.843000000     1.529000000     2.481000000
C     3.098000000     2.695000000     2.184000000
H     3.359000000     3.177000000     1.244000000
C     1.970000000     3.065000000     2.905000000
O     1.200000000     4.088000000     2.371000000
C     1.578000000     2.288000000     4.053000000
C     0.247000000     2.598000000     4.831000000
H     0.331000000     2.196000000     5.843000000
C    -0.996000000     1.926000000     4.243000000
C    -1.493000000     0.691000000     4.728000000
H    -1.031000000     0.188000000     5.573000000
H     0.058000000     3.662000000     4.988000000
C     2.404000000     1.193000000     4.388000000
H     2.126000000     0.575000000     5.238000000
C     3.389000000     0.737000000     3.521000000
C     4.066000000    -0.613000000     3.784000000
H     4.108000000    -0.856000000     4.847000000
H     5.130000000    -0.431000000     3.624000000
C     3.515000000    -1.735000000     2.982000000
C     2.454000000    -2.390000000     3.530000000
H     1.948000000    -2.090000000     4.445000000
C     3.907000000    -2.030000000     1.727000000
C     3.252000000    -3.023000000     0.954000000
H     3.551000000    -3.370000000    -0.031000000
C     2.263000000    -3.805000000     1.546000000
O     1.545000000    -4.654000000     0.694000000
C     0.308000000    -4.119000000     0.211000000
C     0.209000000    -4.491000000    -1.283000000
C    -1.016000000    -4.984000000    -1.778000000
H    -1.801000000    -5.206000000    -1.061000000
C     1.253000000    -4.226000000    -2.136000000
H     2.221000000    -3.837000000    -1.830000000
O    -0.775000000    -4.755000000     0.934000000
H     0.318000000    -3.022000000     0.298000000
C     1.919000000    -3.559000000     2.898000000
C     0.718000000    -4.212000000     3.591000000
H     0.773000000    -4.107000000     4.676000000
H     0.923000000    -5.250000000     3.321000000
C    -0.680000000    -3.814000000     3.098000000
C    -1.362000000    -2.912000000     3.949000000
H    -0.949000000    -2.456000000     4.844000000
C    -1.416000000    -4.112000000     1.934000000
C    -2.566000000    -3.489000000     1.611000000
H    -3.008000000    -3.685000000     0.637000000
C    -3.224000000    -2.672000000     2.452000000
O    -4.220000000    -2.015000000     1.905000000
C    -3.979000000    -0.688000000     1.369000000
C    -4.813000000    -0.435000000     0.064000000
C    -4.774000000    -1.298000000    -1.012000000
H    -4.342000000    -2.290000000    -0.899000000
C    -5.502000000     0.796000000    -0.053000000
H    -5.516000000     1.517000000     0.760000000
O    -4.329000000     0.215000000     2.391000000
H    -2.924000000    -0.573000000     1.080000000
C    -2.599000000    -2.371000000     3.676000000
C    -3.110000000    -1.263000000     4.610000000
H    -2.627000000    -1.478000000     5.565000000
H    -4.202000000    -1.267000000     4.573000000
C    -2.711000000     0.132000000     4.153000000
C    -3.325000000     0.736000000     3.123000000
C    -2.758000000     1.962000000     2.656000000
H    -3.202000000     2.329000000     1.735000000
C    -1.628000000     2.572000000     3.217000000
O    -1.188000000     3.785000000     2.643000000
C    -0.082000000     3.745000000     1.798000000
H    -0.025000000     2.694000000     1.480000000
C    -0.435000000     4.503000000     0.535000000
C     0.656000000     4.915000000    -0.250000000
H     1.623000000     4.533000000     0.069000000
C    -1.701000000     4.717000000    -0.014000000
H    -2.595000000     4.311000000     0.451000000
C    -1.874000000     5.437000000    -1.190000000
O    -3.091000000     5.605000000    -1.878000000
C    -0.787000000     5.856000000    -1.899000000
H    -0.982000000     6.432000000    -2.800000000
C     0.511000000     5.639000000    -1.458000000
O     1.574000000     5.857000000    -2.336000000
C     2.827000000     5.653000000    -1.959000000
C     3.640000000     4.802000000    -2.652000000
H     3.209000000     4.345000000    -3.539000000
C     3.340000000     6.313000000    -0.805000000
H     2.705000000     6.983000000    -0.230000000
C     4.658000000     6.164000000    -0.459000000
H     5.052000000     6.770000000     0.353000000
C     5.476000000     5.316000000    -1.200000000
H     6.545000000     5.324000000    -1.001000000
C     4.967000000     4.505000000    -2.241000000
O     5.725000000     3.522000000    -2.780000000
C     5.565000000     2.249000000    -2.347000000
C     5.893000000     1.260000000    -3.291000000
H     6.350000000     1.547000000    -4.235000000
C     5.555000000    -0.019000000    -3.011000000
O     5.674000000    -0.943000000    -4.056000000
C     5.290000000    -2.181000000    -3.944000000
C     3.994000000    -2.487000000    -4.259000000
H     3.340000000    -1.660000000    -4.524000000
C     6.085000000    -3.173000000    -3.373000000
H     7.107000000    -2.978000000    -3.059000000
C     5.585000000    -4.444000000    -3.062000000
H     6.158000000    -5.172000000    -2.493000000
C     4.274000000    -4.764000000    -3.395000000
H     3.912000000    -5.780000000    -3.257000000
C     3.460000000    -3.760000000    -3.980000000
O     2.197000000    -4.124000000    -4.422000000
C     1.184000000    -4.508000000    -3.541000000
C    -0.100000000    -4.914000000    -4.077000000
H    -0.273000000    -5.160000000    -5.122000000
C    -1.146000000    -5.215000000    -3.171000000
O    -2.356000000    -5.727000000    -3.626000000
C    -3.584000000    -5.148000000    -3.320000000
C    -3.668000000    -3.739000000    -3.340000000
H    -2.745000000    -3.165000000    -3.323000000
C    -4.693000000    -5.915000000    -3.338000000
H    -4.526000000    -6.986000000    -3.425000000
C    -5.916000000    -5.308000000    -3.180000000
H    -6.772000000    -5.946000000    -3.386000000
C    -5.976000000    -3.985000000    -3.194000000
H    -6.984000000    -3.582000000    -3.249000000
C    -4.905000000    -3.143000000    -3.214000000
O    -5.115000000    -1.828000000    -3.302000000
C    -5.287000000    -0.943000000    -2.241000000
C    -5.836000000     0.312000000    -2.407000000
H    -6.290000000     0.703000000    -3.314000000
C    -5.919000000     1.171000000    -1.353000000
O    -6.539000000     2.401000000    -1.522000000
C    -5.988000000     3.573000000    -1.153000000
C    -6.628000000     4.329000000    -0.192000000
H    -7.470000000     3.922000000     0.363000000
C    -6.053000000     5.435000000     0.259000000
H    -6.518000000     6.012000000     1.054000000
C    -4.929000000     5.944000000    -0.393000000
H    -4.419000000     6.884000000    -0.197000000
C    -4.308000000     5.184000000    -1.342000000
C    -4.731000000     3.919000000    -1.590000000
H    -4.179000000     3.254000000    -2.250000000
C    -1.280000000     0.769000000    -2.005000000
H    -2.243000000     0.322000000    -2.238000000
C    -0.699000000     0.361000000    -0.845000000
H    -1.213000000    -0.294000000    -0.146000000
C     0.556000000     0.840000000    -0.438000000
H     1.058000000     0.295000000     0.402000000
C     1.207000000     1.760000000    -1.269000000
H     2.152000000     2.148000000    -0.900000000
C     0.581000000     2.331000000    -2.378000000
H     1.141000000     3.099000000    -2.904000000
C    -0.666000000     1.798000000    -2.805000000
C    -1.271000000     2.369000000    -3.973000000
O    -0.997000000     3.492000000    -4.441000000
O    -2.102000000     1.723000000    -4.543000000
O    -4.738000000     0.243000000    -7.833000000
H    -4.532000000     0.373000000    -6.907000000
H    -4.958000000     1.117000000    -8.154000000
O     1.164000000     7.646000000    -6.320000000
H     1.386000000     6.810000000    -5.910000000
H     0.243000000     7.555000000    -6.566000000
O     3.159000000     2.253000000    -6.607000000
H     3.030000000     1.518000000    -7.206000000
H     3.098000000     1.865000000    -5.734000000
O    -1.767000000     8.056000000    -5.491000000
H    -1.910000000     8.658000000    -4.761000000
H    -2.391000000     7.345000000    -5.341000000
O    -3.702000000     3.255000000    -6.590000000
H    -4.557000000     2.827000000    -6.547000000
H    -3.125000000     2.691000000    -6.075000000
O    -4.128000000     5.469000000    -8.380000000
H    -3.443000000     5.099000000    -7.823000000
H    -4.030000000     5.013000000    -9.216000000
O    -4.154000000     7.520000000    -3.760000000
H    -3.943000000     7.177000000    -2.891000000
H    -4.170000000     6.748000000    -4.325000000
O    -0.284000000    -0.798000000    -4.711000000
H    -0.611000000    -1.560000000    -5.189000000
H    -0.944000000    -0.120000000    -4.861000000
O    -1.557000000    -2.769000000    -5.929000000
H    -1.538000000    -2.325000000    -6.777000000
H    -2.306000000    -3.363000000    -5.988000000
O     1.662000000     4.627000000    -8.288000000
H     1.228000000     4.745000000    -7.443000000
H     2.480000000     5.118000000    -8.208000000
O    -5.878000000     5.421000000    -6.369000000
H    -6.057000000     4.481000000    -6.394000000
H    -5.257000000     5.565000000    -7.083000000
O    -4.394000000     0.531000000    -5.220000000
H    -4.612000000    -0.035000000    -4.480000000
H    -3.550000000     0.916000000    -4.987000000
O     2.095000000     0.676000000    -4.136000000
H     1.427000000     0.138000000    -4.561000000
H     1.799000000     0.753000000    -3.229000000
O     0.048000000     2.382000000    -6.742000000
H     0.950000000     2.676000000    -6.616000000
H    -0.391000000     2.596000000    -5.919000000
O    -1.357000000     0.304000000    -8.028000000
H    -0.940000000     1.052000000    -7.601000000
H    -2.112000000     0.679000000    -8.482000000
O     2.360000000     2.255000000    -9.430000000
H     2.309000000     2.518000000   -10.349000000
H     2.057000000     3.022000000    -8.945000000
O    -1.513000000     5.062000000    -7.249000000
H    -1.323000000     5.262000000    -6.333000000
H    -1.418000000     4.111000000    -7.312000000
O     0.808000000     5.185000000    -4.969000000
H     0.170000000     4.537000000    -4.671000000
H     1.196000000     5.527000000    -4.163000000
O    -2.891000000     5.448000000    -4.841000000
H    -2.347000000     4.725000000    -4.529000000
H    -3.323000000     5.103000000    -5.622000000
