215
-1434.51762
C    -2.565000000    -0.995000000    -4.146000000
H    -2.368000000    -2.062000000    -4.094000000
C    -1.632000000    -0.028000000    -4.319000000
C    -1.992000000     1.286000000    -4.589000000
H    -1.281000000     2.108000000    -4.601000000
C    -0.182000000    -0.382000000    -4.097000000
O     0.112000000    -1.707000000    -4.645000000
H    -0.005000000    -0.416000000    -3.012000000
O     0.698000000     0.628000000    -4.682000000
C     1.747000000     0.971000000    -3.954000000
C     1.724000000     2.164000000    -3.269000000
H     0.748000000     2.640000000    -3.225000000
C     2.744000000     2.642000000    -2.443000000
O     2.625000000     3.826000000    -1.808000000
C     3.790000000     1.762000000    -2.345000000
C     4.990000000     2.268000000    -1.476000000
H     5.932000000     1.833000000    -1.817000000
C     4.722000000     2.042000000    -0.014000000
C     5.075000000     0.799000000     0.567000000
H     5.696000000     0.143000000    -0.037000000
H     5.215000000     3.330000000    -1.596000000
C     3.799000000     0.514000000    -2.987000000
H     4.588000000    -0.175000000    -2.698000000
C     2.880000000     0.137000000    -3.957000000
C     2.859000000    -1.190000000    -4.596000000
H     3.907000000    -1.354000000    -4.855000000
H     2.332000000    -1.301000000    -5.546000000
C     2.208000000    -2.211000000    -3.721000000
C     3.003000000    -2.768000000    -2.703000000
H     4.041000000    -2.469000000    -2.578000000
C     0.822000000    -2.484000000    -3.827000000
C     0.268000000    -3.423000000    -3.004000000
H    -0.811000000    -3.519000000    -2.926000000
C     1.058000000    -4.012000000    -2.030000000
O     0.429000000    -4.821000000    -1.128000000
C     0.017000000    -4.226000000     0.059000000
C    -1.372000000    -4.698000000     0.399000000
C    -1.753000000    -4.978000000     1.720000000
H    -1.041000000    -5.047000000     2.539000000
C    -2.465000000    -4.750000000    -0.592000000
H    -2.223000000    -4.462000000    -1.612000000
O     0.994000000    -4.691000000     1.041000000
H     0.095000000    -3.135000000    -0.057000000
C     2.427000000    -3.764000000    -1.951000000
C     3.260000000    -4.417000000    -0.852000000
H     4.284000000    -4.402000000    -1.231000000
H     2.891000000    -5.404000000    -0.564000000
C     3.133000000    -3.678000000     0.496000000
C     4.051000000    -2.617000000     0.799000000
H     4.812000000    -2.393000000     0.056000000
C     2.063000000    -3.900000000     1.359000000
C     1.980000000    -3.265000000     2.555000000
H     1.163000000    -3.417000000     3.256000000
C     2.925000000    -2.315000000     2.942000000
O     2.670000000    -1.449000000     4.010000000
C     2.184000000    -0.090000000     3.667000000
C     0.868000000     0.215000000     4.368000000
C    -0.153000000    -0.699000000     4.494000000
H    -0.161000000    -1.658000000     3.982000000
C     0.753000000     1.451000000     4.953000000
H     1.658000000     2.042000000     4.833000000
O     3.274000000     0.856000000     3.788000000
H     1.896000000    -0.071000000     2.605000000
C     3.971000000    -1.948000000     2.025000000
C     5.019000000    -0.950000000     2.406000000
H     5.995000000    -1.165000000     1.964000000
H     5.159000000    -0.966000000     3.489000000
C     4.693000000     0.404000000     1.851000000
C     3.868000000     1.214000000     2.596000000
C     3.436000000     2.442000000     2.078000000
H     2.708000000     2.957000000     2.699000000
C     3.886000000     2.825000000     0.775000000
O     3.213000000     3.854000000     0.282000000
C     2.102000000     3.576000000    -0.519000000
H     1.805000000     2.539000000    -0.306000000
C     0.941000000     4.483000000    -0.245000000
C     0.166000000     4.968000000    -1.259000000
H     0.456000000     4.763000000    -2.286000000
C     0.634000000     4.819000000     1.084000000
H     1.145000000     4.356000000     1.924000000
C    -0.432000000     5.670000000     1.330000000
O    -0.629000000     6.321000000     2.589000000
C    -1.226000000     6.189000000     0.293000000
H    -1.999000000     6.913000000     0.540000000
C    -0.915000000     5.820000000    -0.994000000
O    -1.785000000     6.276000000    -1.954000000
C    -1.960000000     5.783000000    -3.240000000
C    -2.629000000     4.534000000    -3.288000000
H    -2.920000000     3.965000000    -2.409000000
C    -1.551000000     6.406000000    -4.406000000
H    -1.021000000     7.352000000    -4.328000000
C    -1.895000000     5.938000000    -5.654000000
H    -1.562000000     6.489000000    -6.530000000
C    -2.672000000     4.753000000    -5.761000000
H    -2.914000000     4.326000000    -6.731000000
C    -3.051000000     4.065000000    -4.532000000
O    -3.804000000     2.966000000    -4.688000000
C    -3.333000000     1.659000000    -4.536000000
C    -4.308000000     0.714000000    -4.338000000
H    -5.354000000     1.009000000    -4.306000000
C    -3.928000000    -0.595000000    -4.175000000
O    -5.050000000    -1.427000000    -4.170000000
C    -5.041000000    -2.747000000    -3.922000000
C    -4.816000000    -3.207000000    -2.652000000
H    -4.626000000    -2.528000000    -1.825000000
C    -5.090000000    -3.649000000    -4.960000000
H    -5.120000000    -3.196000000    -5.948000000
C    -5.187000000    -5.040000000    -4.690000000
H    -5.191000000    -5.593000000    -5.626000000
C    -5.149000000    -5.513000000    -3.396000000
H    -5.305000000    -6.558000000    -3.141000000
C    -4.828000000    -4.586000000    -2.390000000
O    -4.890000000    -5.052000000    -1.066000000
C    -3.791000000    -4.972000000    -0.223000000
C    -4.089000000    -5.186000000     1.078000000
H    -5.066000000    -5.467000000     1.463000000
C    -3.071000000    -5.257000000     2.027000000
O    -3.296000000    -5.484000000     3.406000000
C    -2.704000000    -4.852000000     4.475000000
C    -2.805000000    -3.478000000     4.423000000
H    -3.222000000    -2.972000000     3.556000000
C    -2.126000000    -5.459000000     5.568000000
H    -2.163000000    -6.538000000     5.688000000
C    -1.531000000    -4.621000000     6.537000000
H    -1.032000000    -4.967000000     7.439000000
C    -1.483000000    -3.261000000     6.421000000
H    -1.038000000    -2.699000000     7.238000000
C    -2.198000000    -2.661000000     5.361000000
O    -2.346000000    -1.237000000     5.208000000
C    -1.267000000    -0.373000000     5.297000000
C    -1.412000000     0.979000000     5.742000000
H    -2.328000000     1.307000000     6.226000000
C    -0.389000000     1.888000000     5.630000000
O    -0.459000000     3.143000000     6.223000000
C    -0.086000000     4.311000000     5.644000000
C     0.473000000     5.275000000     6.466000000
H     0.808000000     5.132000000     7.490000000
C     0.917000000     6.522000000     5.902000000
H     1.391000000     7.251000000     6.554000000
C     0.526000000     6.905000000     4.592000000
H     0.679000000     7.901000000     4.185000000
C    -0.119000000     5.909000000     3.793000000
C    -0.383000000     4.624000000     4.313000000
H    -0.817000000     3.868000000     3.664000000
C    -2.308000000    -0.493000000     0.914000000
H    -3.226000000    -0.986000000     1.224000000
C    -1.077000000    -1.030000000     1.262000000
H    -0.958000000    -1.892000000     1.914000000
C     0.085000000    -0.464000000     0.656000000
H     1.022000000    -0.844000000     0.913000000
C    -0.104000000     0.666000000    -0.170000000
H     0.785000000     1.086000000    -0.633000000
C    -1.362000000     1.170000000    -0.492000000
H    -1.402000000     1.982000000    -1.215000000
C    -2.494000000     0.619000000     0.096000000
C    -3.924000000     1.073000000    -0.320000000
O    -4.084000000     2.204000000    -0.461000000
O    -4.839000000     0.423000000     0.102000000
O    -6.983000000    -0.304000000    -1.670000000
H    -7.153000000     0.355000000    -2.344000000
H    -6.206000000     0.018000000    -1.211000000
O    -8.366000000    -2.540000000    -2.113000000
H    -8.512000000    -2.333000000    -3.036000000
H    -7.877000000    -1.790000000    -1.775000000
O    -7.581000000     5.068000000     1.283000000
H    -7.102000000     5.029000000     2.111000000
H    -7.596000000     4.163000000     0.972000000
O    -7.045000000     3.539000000    -5.131000000
H    -6.657000000     4.411000000    -5.060000000
H    -6.571000000     3.124000000    -5.851000000
O    -7.992000000     2.107000000    -2.915000000
H    -8.052000000     2.618000000    -3.722000000
H    -8.651000000     2.493000000    -2.338000000
O    -7.643000000    -2.266000000     5.522000000
H    -6.900000000    -2.467000000     6.092000000
H    -7.249000000    -1.876000000     4.742000000
O    -4.532000000     0.541000000     5.098000000
H    -4.532000000     0.847000000     4.191000000
H    -3.828000000    -0.107000000     5.132000000
O    -6.911000000    -3.139000000     1.852000000
H    -6.738000000    -2.230000000     2.097000000
H    -7.159000000    -3.096000000     0.929000000
O    -9.806000000     3.561000000    -1.303000000
H    -9.781000000     3.452000000    -0.352000000
H   -10.738000000     3.584000000    -1.517000000
O    -3.632000000     4.171000000     1.252000000
H    -3.026000000     4.706000000     0.740000000
H    -3.832000000     3.426000000     0.686000000
O    -5.875000000     3.516000000     6.463000000
H    -5.887000000     3.559000000     5.507000000
H    -5.704000000     2.595000000     6.659000000
O    -6.494000000    -0.545000000     2.010000000
H    -6.260000000     0.099000000     2.678000000
H    -5.914000000    -0.349000000     1.274000000
O    -9.338000000     1.979000000     2.982000000
H    -8.843000000     1.644000000     2.234000000
H    -9.670000000     2.827000000     2.688000000
O    -7.458000000     7.175000000    -0.423000000
H    -7.118000000     7.847000000     0.168000000
H    -7.664000000     6.436000000     0.149000000
O    -6.089000000     6.396000000    -2.643000000
H    -5.839000000     5.478000000    -2.540000000
H    -6.450000000     6.643000000    -1.791000000
O    -5.122000000     4.474000000     3.383000000
H    -5.113000000     5.376000000     3.705000000
H    -4.481000000     4.467000000     2.672000000
O    -4.862000000     1.785000000     2.698000000
H    -4.850000000     2.734000000     2.823000000
H    -4.688000000     1.664000000     1.765000000
O    -5.778000000     3.611000000    -1.909000000
H    -5.127000000     2.999000000    -1.565000000
H    -6.563000000     3.078000000    -2.036000000
O    -7.322000000     2.044000000     0.179000000
H    -6.388000000     1.909000000     0.021000000
H    -7.751000000     1.335000000    -0.299000000
