215
-1475.87718
C     4.849000000    -1.164000000    -1.836000000
H     4.929000000    -2.160000000    -1.406000000
C     4.466000000    -0.136000000    -0.998000000
C     4.320000000     1.165000000    -1.545000000
H     3.800000000     1.914000000    -0.953000000
C     3.977000000    -0.393000000     0.375000000
O     4.343000000    -1.705000000     0.802000000
H     2.882000000    -0.314000000     0.306000000
O     4.518000000     0.572000000     1.327000000
C     3.673000000     1.012000000     2.325000000
C     3.177000000     2.269000000     2.086000000
H     3.535000000     2.789000000     1.201000000
C     2.129000000     2.669000000     2.971000000
O     1.594000000     3.998000000     2.652000000
C     1.760000000     1.988000000     4.114000000
C     0.708000000     2.418000000     5.109000000
H     0.897000000     1.934000000     6.069000000
C    -0.693000000     2.204000000     4.579000000
C    -1.307000000     0.924000000     4.946000000
H    -0.798000000     0.226000000     5.605000000
H     0.798000000     3.493000000     5.278000000
C     2.321000000     0.725000000     4.262000000
H     1.918000000    -0.036000000     4.925000000
C     3.307000000     0.242000000     3.443000000
C     3.878000000    -1.173000000     3.569000000
H     3.865000000    -1.463000000     4.622000000
H     4.927000000    -1.105000000     3.273000000
C     3.143000000    -2.200000000     2.843000000
C     2.143000000    -2.912000000     3.485000000
H     1.774000000    -2.598000000     4.458000000
C     3.436000000    -2.544000000     1.512000000
C     2.805000000    -3.574000000     0.847000000
H     3.111000000    -3.778000000    -0.176000000
C     1.782000000    -4.178000000     1.458000000
O     1.041000000    -5.030000000     0.693000000
C    -0.119000000    -4.549000000     0.058000000
C    -0.135000000    -4.936000000    -1.401000000
C    -1.319000000    -4.838000000    -2.090000000
H    -2.251000000    -4.654000000    -1.562000000
C     1.062000000    -5.140000000    -2.016000000
H     1.996000000    -5.110000000    -1.462000000
O    -1.209000000    -5.088000000     0.864000000
H    -0.042000000    -3.459000000     0.187000000
C     1.404000000    -3.902000000     2.806000000
C     0.192000000    -4.529000000     3.464000000
H     0.304000000    -4.394000000     4.542000000
H     0.117000000    -5.590000000     3.220000000
C    -1.068000000    -3.837000000     2.956000000
C    -1.496000000    -2.813000000     3.803000000
H    -0.926000000    -2.587000000     4.701000000
C    -1.743000000    -4.191000000     1.801000000
C    -2.814000000    -3.387000000     1.426000000
H    -3.249000000    -3.425000000     0.431000000
C    -3.114000000    -2.270000000     2.219000000
O    -4.036000000    -1.376000000     1.682000000
C    -3.726000000     0.058000000     1.291000000
C    -4.431000000     0.424000000     0.005000000
C    -4.599000000    -0.560000000    -0.985000000
H    -4.180000000    -1.557000000    -0.868000000
C    -4.821000000     1.751000000    -0.206000000
H    -4.844000000     2.453000000     0.623000000
O    -4.019000000     0.925000000     2.440000000
H    -2.646000000     0.132000000     1.097000000
C    -2.595000000    -1.993000000     3.486000000
C    -3.032000000    -0.923000000     4.381000000
H    -2.839000000    -1.233000000     5.411000000
H    -4.122000000    -0.903000000     4.317000000
C    -2.424000000     0.502000000     4.189000000
C    -2.967000000     1.376000000     3.274000000
C    -2.454000000     2.644000000     3.029000000
H    -2.949000000     3.269000000     2.290000000
C    -1.316000000     3.076000000     3.696000000
O    -0.629000000     4.184000000     3.287000000
C     0.252000000     4.021000000     2.142000000
H     0.081000000     3.026000000     1.704000000
C     0.062000000     4.985000000     1.028000000
C     0.998000000     5.311000000     0.053000000
H     2.023000000     4.976000000     0.182000000
C    -1.203000000     5.622000000     0.802000000
H    -1.945000000     5.538000000     1.591000000
C    -1.486000000     6.450000000    -0.306000000
O    -2.760000000     7.064000000    -0.403000000
C    -0.533000000     6.589000000    -1.283000000
H    -0.738000000     7.071000000    -2.236000000
C     0.715000000     6.047000000    -1.082000000
O     1.672000000     6.317000000    -2.027000000
C     2.852000000     5.680000000    -1.996000000
C     2.965000000     4.390000000    -2.633000000
H     2.053000000     3.976000000    -3.056000000
C     3.994000000     6.296000000    -1.458000000
H     3.864000000     7.271000000    -0.997000000
C     5.194000000     5.595000000    -1.387000000
H     5.963000000     6.059000000    -0.775000000
C     5.260000000     4.380000000    -2.050000000
H     6.235000000     3.900000000    -2.071000000
C     4.177000000     3.763000000    -2.664000000
O     4.394000000     2.659000000    -3.457000000
C     4.580000000     1.409000000    -2.895000000
C     4.939000000     0.329000000    -3.700000000
H     5.124000000     0.587000000    -4.740000000
C     5.121000000    -0.985000000    -3.202000000
O     5.461000000    -2.042000000    -4.014000000
C     5.169000000    -3.391000000    -3.803000000
C     3.869000000    -3.907000000    -3.943000000
H     3.057000000    -3.238000000    -4.216000000
C     6.133000000    -4.264000000    -3.296000000
H     7.094000000    -3.761000000    -3.221000000
C     5.890000000    -5.626000000    -3.150000000
H     6.741000000    -6.201000000    -2.793000000
C     4.590000000    -6.146000000    -3.399000000
H     4.360000000    -7.182000000    -3.164000000
C     3.560000000    -5.233000000    -3.742000000
O     2.279000000    -5.629000000    -4.041000000
C     1.150000000    -5.236000000    -3.399000000
C    -0.049000000    -5.181000000    -4.107000000
H    -0.022000000    -5.324000000    -5.184000000
C    -1.279000000    -4.934000000    -3.472000000
O    -2.404000000    -4.853000000    -4.276000000
C    -3.616000000    -4.293000000    -3.787000000
C    -3.889000000    -2.939000000    -3.808000000
H    -3.259000000    -2.267000000    -4.384000000
C    -4.531000000    -5.128000000    -3.130000000
H    -4.298000000    -6.190000000    -3.118000000
C    -5.717000000    -4.612000000    -2.586000000
H    -6.377000000    -5.295000000    -2.058000000
C    -5.952000000    -3.246000000    -2.586000000
H    -6.846000000    -2.791000000    -2.166000000
C    -5.013000000    -2.383000000    -3.217000000
O    -5.130000000    -1.038000000    -3.293000000
C    -5.109000000    -0.183000000    -2.215000000
C    -5.368000000     1.147000000    -2.544000000
H    -5.647000000     1.347000000    -3.576000000
C    -5.224000000     2.107000000    -1.487000000
O    -5.629000000     3.405000000    -1.707000000
C    -5.339000000     4.496000000    -1.000000000
C    -6.408000000     5.115000000    -0.386000000
H    -7.392000000     4.655000000    -0.412000000
C    -6.306000000     6.349000000     0.258000000
H    -7.151000000     6.815000000     0.759000000
C    -5.022000000     6.928000000     0.322000000
H    -4.841000000     7.854000000     0.862000000
C    -3.970000000     6.400000000    -0.412000000
C    -4.106000000     5.158000000    -1.068000000
H    -3.304000000     4.752000000    -1.678000000
C    -1.492000000     0.222000000    -2.304000000
H    -2.283000000    -0.219000000    -2.904000000
C    -0.955000000    -0.686000000    -1.355000000
H    -1.321000000    -1.707000000    -1.284000000
C     0.116000000    -0.285000000    -0.463000000
H     0.524000000    -1.020000000     0.237000000
C     0.446000000     1.058000000    -0.413000000
H     1.116000000     1.377000000     0.381000000
C    -0.157000000     1.956000000    -1.308000000
H     0.223000000     2.974000000    -1.286000000
C    -1.111000000     1.544000000    -2.280000000
C    -1.735000000     2.451000000    -3.283000000
O    -1.621000000     3.661000000    -3.272000000
O    -2.192000000     1.901000000    -4.255000000
O    -0.363000000     2.420000000    -9.164000000
H     0.367000000     2.616000000    -9.751000000
H     0.053000000     2.197000000    -8.331000000
O     2.374000000     6.460000000    -5.710000000
H     1.792000000     5.811000000    -5.316000000
H     2.748000000     6.016000000    -6.471000000
O    -3.094000000     2.561000000    -9.257000000
H    -2.146000000     2.552000000    -9.387000000
H    -3.236000000     3.211000000    -8.568000000
O     3.194000000     0.557000000    -6.189000000
H     3.059000000    -0.183000000    -6.781000000
H     2.892000000     0.241000000    -5.338000000
O    -0.868000000     9.292000000    -4.447000000
H    -1.161000000     8.427000000    -4.157000000
H    -0.440000000     9.130000000    -5.288000000
O    -4.130000000     6.641000000    -7.623000000
H    -3.417000000     6.020000000    -7.470000000
H    -4.911000000     6.194000000    -7.296000000
O     2.035000000    -1.636000000    -7.464000000
H     2.044000000    -2.529000000    -7.809000000
H     1.586000000    -1.709000000    -6.622000000
O    -1.470000000    -0.191000000    -5.727000000
H    -2.239000000    -0.589000000    -6.135000000
H    -1.808000000     0.591000000    -5.290000000
O    -4.879000000     7.933000000    -3.715000000
H    -4.067000000     7.427000000    -3.675000000
H    -5.571000000     7.273000000    -3.761000000
O    -3.581000000    -1.197000000    -7.088000000
H    -3.392000000    -0.734000000    -7.904000000
H    -3.957000000    -0.529000000    -6.515000000
O    -4.450000000     1.215000000    -5.465000000
H    -4.803000000     2.073000000    -5.702000000
H    -3.658000000     1.412000000    -4.965000000
O     1.251000000    -0.257000000    -3.512000000
H     0.805000000    -0.951000000    -3.998000000
H     0.545000000     0.233000000    -3.092000000
O     0.894000000     2.125000000    -6.296000000
H     1.803000000     1.826000000    -6.307000000
H     0.448000000     1.515000000    -5.710000000
O    -3.114000000     3.919000000    -7.105000000
H    -2.318000000     4.451000000    -7.109000000
H    -3.080000000     3.443000000    -6.275000000
O    -1.375000000     5.815000000    -7.071000000
H    -1.197000000     6.755000000    -7.102000000
H    -0.623000000     5.444000000    -6.608000000
O    -6.981000000     3.045000000    -5.947000000
H    -7.211000000     2.390000000    -6.605000000
H    -7.541000000     2.839000000    -5.198000000
O     0.310000000     4.776000000    -5.009000000
H    -0.375000000     4.535000000    -4.385000000
H     0.528000000     3.956000000    -5.452000000
O     0.241000000    -2.222000000    -5.197000000
H    -0.231000000    -2.919000000    -5.652000000
H    -0.385000000    -1.500000000    -5.150000000
O    -2.726000000     6.090000000    -4.133000000
H    -2.838000000     5.251000000    -3.686000000
H    -2.067000000     5.916000000    -4.805000000
