215
-1460.91760
C     4.898000000    -0.340000000    -1.311000000
H     5.145000000    -1.367000000    -1.053000000
C     4.281000000     0.526000000    -0.465000000
C     3.884000000     1.802000000    -0.919000000
H     3.451000000     2.546000000    -0.255000000
C     3.996000000     0.130000000     0.915000000
O     4.726000000    -1.108000000     1.314000000
H     2.901000000     0.039000000     0.958000000
O     4.337000000     1.047000000     1.910000000
C     3.267000000     1.190000000     2.849000000
C     2.533000000     2.372000000     2.886000000
H     2.709000000     3.223000000     2.233000000
C     1.424000000     2.541000000     3.655000000
O     0.677000000     3.656000000     3.288000000
C     1.044000000     1.550000000     4.618000000
C    -0.220000000     1.681000000     5.427000000
H    -0.060000000     1.039000000     6.295000000
C    -1.426000000     1.270000000     4.587000000
C    -1.895000000    -0.049000000     4.606000000
H    -1.610000000    -0.660000000     5.458000000
H    -0.494000000     2.679000000     5.777000000
C     1.912000000     0.387000000     4.704000000
H     1.572000000    -0.372000000     5.404000000
C     2.990000000     0.191000000     3.802000000
C     3.837000000    -1.016000000     3.932000000
H     3.780000000    -1.408000000     4.949000000
H     4.910000000    -0.841000000     3.826000000
C     3.395000000    -2.137000000     2.933000000
C     2.405000000    -2.992000000     3.333000000
H     2.005000000    -2.944000000     4.343000000
C     3.916000000    -2.166000000     1.654000000
C     3.403000000    -3.056000000     0.715000000
H     3.675000000    -3.011000000    -0.337000000
C     2.417000000    -3.894000000     1.113000000
O     1.841000000    -4.669000000     0.133000000
C     0.606000000    -4.218000000    -0.405000000
C     0.640000000    -4.351000000    -1.922000000
C    -0.524000000    -4.431000000    -2.571000000
H    -1.446000000    -4.358000000    -2.000000000
C     1.849000000    -4.468000000    -2.530000000
H     2.796000000    -4.399000000    -2.001000000
O    -0.495000000    -4.966000000     0.108000000
H     0.535000000    -3.172000000    -0.071000000
C     1.917000000    -3.878000000     2.414000000
C     0.655000000    -4.718000000     2.760000000
H     0.524000000    -4.929000000     3.823000000
H     0.769000000    -5.715000000     2.330000000
C    -0.663000000    -4.035000000     2.355000000
C    -1.413000000    -3.292000000     3.271000000
H    -0.998000000    -3.202000000     4.271000000
C    -1.200000000    -4.322000000     1.097000000
C    -2.326000000    -3.679000000     0.642000000
H    -2.724000000    -3.792000000    -0.363000000
C    -3.000000000    -2.818000000     1.517000000
O    -4.061000000    -2.018000000     0.973000000
C    -3.799000000    -0.633000000     0.735000000
C    -4.444000000    -0.170000000    -0.569000000
C    -4.555000000    -1.085000000    -1.583000000
H    -4.209000000    -2.096000000    -1.385000000
C    -4.777000000     1.154000000    -0.704000000
H    -4.614000000     1.820000000     0.139000000
O    -4.346000000     0.143000000     1.865000000
H    -2.711000000    -0.527000000     0.612000000
C    -2.640000000    -2.714000000     2.839000000
C    -3.414000000    -1.911000000     3.846000000
H    -3.440000000    -2.282000000     4.872000000
H    -4.480000000    -1.990000000     3.621000000
C    -2.975000000    -0.488000000     3.776000000
C    -3.397000000     0.440000000     2.780000000
C    -2.921000000     1.730000000     2.770000000
H    -3.319000000     2.442000000     2.052000000
C    -1.981000000     2.099000000     3.630000000
O    -1.597000000     3.369000000     3.461000000
C    -0.508000000     3.534000000     2.522000000
H    -0.494000000     2.648000000     1.871000000
C    -0.657000000     4.729000000     1.554000000
C     0.496000000     5.307000000     0.984000000
H     1.424000000     4.996000000     1.458000000
C    -1.936000000     5.198000000     1.159000000
H    -2.870000000     4.812000000     1.559000000
C    -2.006000000     6.245000000     0.182000000
O    -3.288000000     6.691000000    -0.315000000
C    -0.842000000     6.814000000    -0.315000000
H    -0.953000000     7.717000000    -0.910000000
C     0.424000000     6.327000000     0.048000000
O     1.480000000     7.077000000    -0.387000000
C     2.652000000     6.447000000    -0.776000000
C     2.579000000     5.216000000    -1.539000000
H     1.642000000     4.762000000    -1.850000000
C     3.834000000     6.977000000    -0.275000000
H     3.616000000     7.920000000     0.219000000
C     4.990000000     6.279000000    -0.565000000
H     6.004000000     6.622000000    -0.377000000
C     4.916000000     5.059000000    -1.217000000
H     5.806000000     4.453000000    -1.363000000
C     3.764000000     4.514000000    -1.762000000
O     3.787000000     3.455000000    -2.617000000
C     4.204000000     2.264000000    -2.206000000
C     4.844000000     1.395000000    -3.012000000
H     5.120000000     1.722000000    -4.011000000
C     5.124000000     0.075000000    -2.649000000
O     5.811000000    -0.774000000    -3.454000000
C     5.544000000    -2.111000000    -3.604000000
C     4.353000000    -2.697000000    -4.103000000
H     3.652000000    -2.024000000    -4.590000000
C     6.497000000    -2.993000000    -3.022000000
H     7.442000000    -2.702000000    -2.572000000
C     6.333000000    -4.393000000    -3.093000000
H     7.111000000    -5.038000000    -2.692000000
C     5.220000000    -4.945000000    -3.722000000
H     5.059000000    -6.015000000    -3.825000000
C     4.190000000    -4.135000000    -4.126000000
O     3.045000000    -4.784000000    -4.563000000
C     1.889000000    -4.687000000    -3.901000000
C     0.761000000    -4.969000000    -4.569000000
H     0.793000000    -5.312000000    -5.600000000
C    -0.466000000    -4.831000000    -3.910000000
O    -1.683000000    -4.981000000    -4.629000000
C    -2.968000000    -4.591000000    -4.140000000
C    -3.346000000    -3.242000000    -4.286000000
H    -2.694000000    -2.580000000    -4.850000000
C    -3.848000000    -5.487000000    -3.518000000
H    -3.503000000    -6.471000000    -3.212000000
C    -5.039000000    -4.953000000    -3.018000000
H    -5.688000000    -5.518000000    -2.354000000
C    -5.419000000    -3.666000000    -3.173000000
H    -6.270000000    -3.207000000    -2.676000000
C    -4.586000000    -2.793000000    -3.877000000
O    -4.918000000    -1.454000000    -3.981000000
C    -4.983000000    -0.664000000    -2.884000000
C    -5.402000000     0.669000000    -3.053000000
H    -5.731000000     0.937000000    -4.054000000
C    -5.224000000     1.583000000    -1.946000000
O    -5.508000000     2.886000000    -2.271000000
C    -5.437000000     3.921000000    -1.368000000
C    -6.649000000     4.424000000    -0.883000000
H    -7.551000000     3.895000000    -1.179000000
C    -6.688000000     5.570000000    -0.147000000
H    -7.650000000     6.009000000     0.105000000
C    -5.508000000     6.281000000     0.149000000
H    -5.500000000     7.256000000     0.630000000
C    -4.335000000     5.860000000    -0.396000000
C    -4.308000000     4.697000000    -1.182000000
H    -3.400000000     4.347000000    -1.665000000
C    -1.330000000     0.164000000    -2.494000000
H    -1.729000000    -0.619000000    -3.133000000
C    -0.882000000    -0.204000000    -1.239000000
H    -0.926000000    -1.197000000    -0.797000000
C    -0.272000000     0.803000000    -0.479000000
H     0.252000000     0.624000000     0.468000000
C    -0.114000000     2.092000000    -0.936000000
H     0.419000000     2.845000000    -0.361000000
C    -0.778000000     2.488000000    -2.119000000
H    -0.755000000     3.481000000    -2.562000000
C    -1.413000000     1.514000000    -2.844000000
C    -1.949000000     1.941000000    -4.224000000
O    -2.339000000     3.108000000    -4.464000000
O    -2.049000000     1.066000000    -5.144000000
O     0.139000000     3.956000000    -9.127000000
H     1.086000000     3.958000000    -9.265000000
H     0.021000000     3.527000000    -8.280000000
O     0.207000000    -0.123000000    -9.747000000
H    -0.159000000     0.434000000    -9.059000000
H    -0.045000000    -1.011000000    -9.494000000
O     0.731000000     7.480000000    -6.188000000
H     0.086000000     6.919000000    -5.758000000
H     0.774000000     7.150000000    -7.086000000
O    -2.362000000     4.159000000    -9.800000000
H    -1.421000000     4.104000000    -9.629000000
H    -2.771000000     3.903000000    -8.974000000
O    -4.893000000     1.069000000    -8.444000000
H    -5.115000000     0.525000000    -9.200000000
H    -4.434000000     0.476000000    -7.849000000
O     2.421000000     1.020000000    -6.057000000
H     2.635000000     0.282000000    -6.628000000
H     2.131000000     0.614000000    -5.239000000
O    -2.890000000     7.678000000    -4.320000000
H    -3.590000000     7.881000000    -3.699000000
H    -2.953000000     6.733000000    -4.452000000
O    -6.093000000     5.017000000    -6.491000000
H    -6.436000000     4.131000000    -6.613000000
H    -6.472000000     5.308000000    -5.661000000
O     1.768000000    -1.706000000    -6.666000000
H     1.818000000    -2.641000000    -6.866000000
H     0.880000000    -1.580000000    -6.332000000
O    -1.818000000     0.653000000    -8.131000000
H    -2.262000000     0.792000000    -8.967000000
H    -1.850000000     1.506000000    -7.698000000
O     3.303000000     5.165000000    -6.585000000
H     2.505000000     4.934000000    -6.108000000
H     3.576000000     5.999000000    -6.204000000
O    -4.091000000    -0.395000000    -6.341000000
H    -4.523000000    -0.764000000    -5.570000000
H    -3.318000000     0.049000000    -5.993000000
O     1.446000000     0.135000000    -3.179000000
H     1.043000000     0.915000000    -2.798000000
H     0.720000000    -0.479000000    -3.292000000
O     0.010000000     2.553000000    -6.626000000
H     0.795000000     2.011000000    -6.557000000
H    -0.638000000     2.108000000    -6.079000000
O    -3.098000000     3.218000000    -7.332000000
H    -3.904000000     2.754000000    -7.558000000
H    -2.981000000     3.052000000    -6.396000000
O    -2.017000000     7.201000000    -6.885000000
H    -2.097000000     7.647000000    -6.042000000
H    -2.081000000     6.270000000    -6.671000000
O    -0.387000000     4.981000000    -5.532000000
H    -1.223000000     4.813000000    -5.096000000
H    -0.125000000     4.129000000    -5.883000000
O    -0.634000000    -0.973000000    -5.954000000
H    -1.105000000    -0.204000000    -5.632000000
H    -0.938000000    -1.081000000    -6.855000000
O    -3.857000000     5.285000000    -4.452000000
H    -3.410000000     4.441000000    -4.393000000
H    -4.773000000     5.060000000    -4.611000000
