215
-1458.75087
C     4.895000000    -0.700000000    -2.398000000
H     5.022000000    -1.762000000    -2.204000000
C     4.678000000     0.133000000    -1.346000000
C     4.434000000     1.446000000    -1.623000000
H     4.132000000     2.100000000    -0.809000000
C     4.290000000    -0.327000000     0.059000000
O     4.689000000    -1.684000000     0.221000000
H     3.193000000    -0.279000000    -0.022000000
O     4.711000000     0.546000000     1.130000000
C     3.890000000     0.764000000     2.279000000
C     3.353000000     2.027000000     2.408000000
H     3.523000000     2.841000000     1.708000000
C     2.426000000     2.240000000     3.408000000
O     1.797000000     3.459000000     3.440000000
C     2.145000000     1.261000000     4.349000000
C     1.032000000     1.448000000     5.424000000
H     1.178000000     0.834000000     6.315000000
C    -0.359000000     1.198000000     4.864000000
C    -0.835000000    -0.074000000     5.016000000
H    -0.374000000    -0.728000000     5.752000000
H     1.128000000     2.456000000     5.833000000
C     2.721000000    -0.028000000     4.190000000
H     2.449000000    -0.872000000     4.819000000
C     3.719000000    -0.217000000     3.208000000
C     4.380000000    -1.590000000     3.026000000
H     4.513000000    -1.916000000     4.060000000
H     5.383000000    -1.451000000     2.617000000
C     3.544000000    -2.501000000     2.164000000
C     2.644000000    -3.405000000     2.699000000
H     2.541000000    -3.576000000     3.768000000
C     3.804000000    -2.565000000     0.835000000
C     3.115000000    -3.461000000     0.017000000
H     3.312000000    -3.497000000    -1.051000000
C     2.000000000    -4.152000000     0.504000000
O     1.205000000    -4.748000000    -0.433000000
C    -0.145000000    -4.213000000    -0.652000000
C    -0.429000000    -4.206000000    -2.174000000
C    -1.699000000    -4.410000000    -2.700000000
H    -2.489000000    -4.771000000    -2.047000000
C     0.581000000    -3.677000000    -3.032000000
H     1.599000000    -3.448000000    -2.726000000
O    -1.173000000    -4.840000000     0.205000000
H    -0.148000000    -3.137000000    -0.427000000
C     1.733000000    -4.136000000     1.899000000
C     0.563000000    -4.884000000     2.544000000
H     0.790000000    -5.157000000     3.577000000
H     0.516000000    -5.845000000     2.028000000
C    -0.715000000    -4.110000000     2.488000000
C    -1.164000000    -3.397000000     3.568000000
H    -0.558000000    -3.388000000     4.470000000
C    -1.574000000    -4.208000000     1.385000000
C    -2.796000000    -3.592000000     1.332000000
H    -3.487000000    -3.605000000     0.492000000
C    -3.186000000    -2.824000000     2.413000000
O    -4.196000000    -1.885000000     2.231000000
C    -3.900000000    -0.554000000     1.745000000
C    -4.772000000     0.033000000     0.653000000
C    -5.362000000    -0.810000000    -0.287000000
H    -5.303000000    -1.891000000    -0.200000000
C    -4.708000000     1.389000000     0.352000000
H    -4.033000000     2.018000000     0.927000000
O    -3.970000000     0.297000000     2.956000000
H    -2.855000000    -0.611000000     1.404000000
C    -2.406000000    -2.713000000     3.594000000
C    -2.728000000    -1.701000000     4.718000000
H    -2.429000000    -2.171000000     5.657000000
H    -3.805000000    -1.537000000     4.786000000
C    -2.124000000    -0.377000000     4.441000000
C    -2.861000000     0.538000000     3.662000000
C    -2.238000000     1.790000000     3.439000000
H    -2.728000000     2.502000000     2.781000000
C    -1.033000000     2.137000000     4.077000000
O    -0.473000000     3.392000000     3.811000000
C     0.471000000     3.421000000     2.815000000
H     0.356000000     2.499000000     2.226000000
C     0.260000000     4.616000000     1.953000000
C     1.358000000     5.178000000     1.273000000
H     2.318000000     4.690000000     1.417000000
C    -0.948000000     5.231000000     1.815000000
H    -1.779000000     5.011000000     2.480000000
C    -1.099000000     6.202000000     0.821000000
O    -2.381000000     6.781000000     0.765000000
C    -0.054000000     6.634000000     0.037000000
H    -0.151000000     7.447000000    -0.677000000
C     1.199000000     6.139000000     0.305000000
O     2.194000000     6.657000000    -0.498000000
C     3.287000000     5.866000000    -0.826000000
C     3.344000000     4.901000000    -1.847000000
H     2.501000000     4.787000000    -2.524000000
C     4.398000000     6.117000000    -0.060000000
H     4.279000000     6.867000000     0.718000000
C     5.642000000     5.473000000    -0.336000000
H     6.443000000     5.486000000     0.399000000
C     5.700000000     4.607000000    -1.442000000
H     6.583000000     4.034000000    -1.715000000
C     4.547000000     4.290000000    -2.158000000
O     4.589000000     3.312000000    -3.118000000
C     4.757000000     2.017000000    -2.825000000
C     5.089000000     1.160000000    -3.893000000
H     5.240000000     1.533000000    -4.903000000
C     5.218000000    -0.233000000    -3.679000000
O     5.609000000    -1.098000000    -4.656000000
C     4.748000000    -2.135000000    -4.830000000
C     3.360000000    -1.997000000    -5.018000000
H     2.964000000    -0.987000000    -4.953000000
C     5.272000000    -3.433000000    -4.822000000
H     6.298000000    -3.581000000    -4.496000000
C     4.488000000    -4.493000000    -5.242000000
H     4.984000000    -5.459000000    -5.196000000
C     3.139000000    -4.311000000    -5.554000000
H     2.463000000    -5.138000000    -5.758000000
C     2.528000000    -3.080000000    -5.271000000
O     1.164000000    -2.898000000    -5.371000000
C     0.242000000    -3.332000000    -4.340000000
C    -1.054000000    -3.602000000    -4.808000000
H    -1.364000000    -3.360000000    -5.822000000
C    -2.061000000    -4.068000000    -4.007000000
O    -3.327000000    -4.267000000    -4.547000000
C    -4.451000000    -4.055000000    -3.775000000
C    -4.816000000    -2.778000000    -3.421000000
H    -4.237000000    -1.934000000    -3.787000000
C    -5.243000000    -5.055000000    -3.402000000
H    -4.911000000    -6.040000000    -3.720000000
C    -6.467000000    -4.889000000    -2.759000000
H    -7.190000000    -5.674000000    -2.556000000
C    -6.799000000    -3.577000000    -2.392000000
H    -7.751000000    -3.279000000    -1.961000000
C    -5.956000000    -2.513000000    -2.637000000
O    -6.378000000    -1.152000000    -2.396000000
C    -5.964000000    -0.274000000    -1.432000000
C    -5.770000000     1.036000000    -1.762000000
H    -5.962000000     1.352000000    -2.784000000
C    -5.031000000     1.846000000    -0.903000000
O    -4.638000000     3.085000000    -1.341000000
C    -4.768000000     4.261000000    -0.621000000
C    -5.941000000     4.805000000    -0.255000000
H    -6.863000000     4.257000000    -0.433000000
C    -5.994000000     5.929000000     0.489000000
H    -6.971000000     6.295000000     0.791000000
C    -4.795000000     6.589000000     0.828000000
H    -4.746000000     7.531000000     1.369000000
C    -3.563000000     6.035000000     0.456000000
C    -3.598000000     4.984000000    -0.400000000
H    -2.631000000     4.551000000    -0.640000000
C    -1.877000000     0.210000000    -1.942000000
H    -2.854000000     0.090000000    -2.404000000
C    -1.513000000    -0.676000000    -1.012000000
H    -2.179000000    -1.514000000    -0.821000000
C    -0.407000000    -0.387000000    -0.196000000
H    -0.115000000    -0.982000000     0.739000000
C     0.408000000     0.696000000    -0.434000000
H     1.278000000     0.899000000     0.185000000
C     0.017000000     1.671000000    -1.321000000
H     0.601000000     2.561000000    -1.545000000
C    -1.133000000     1.394000000    -2.096000000
C    -1.626000000     2.461000000    -3.059000000
O    -1.140000000     3.596000000    -3.054000000
O    -2.597000000     2.375000000    -3.796000000
O     2.077000000     0.902000000    -7.030000000
H     2.457000000     1.723000000    -6.719000000
H     1.479000000     0.635000000    -6.332000000
O     0.495000000     3.004000000    -9.110000000
H     0.644000000     3.332000000    -8.223000000
H     0.796000000     2.095000000    -9.083000000
O     0.542000000     4.178000000    -6.496000000
H     0.958000000     4.060000000    -5.642000000
H    -0.349000000     4.462000000    -6.291000000
O    -2.177000000     7.078000000    -5.161000000
H    -3.108000000     7.167000000    -5.362000000
H    -2.155000000     6.803000000    -4.244000000
O    -4.575000000     4.755000000    -3.951000000
H    -4.226000000     4.132000000    -4.588000000
H    -4.149000000     4.520000000    -3.127000000
O     1.244000000    -0.133000000    -3.363000000
H     0.441000000     0.110000000    -3.823000000
H     0.942000000    -0.595000000    -2.581000000
O    -0.911000000     0.340000000    -5.279000000
H    -1.029000000     0.582000000    -6.197000000
H    -1.801000000     0.261000000    -4.936000000
O    -5.169000000     6.807000000    -5.534000000
H    -5.265000000     6.056000000    -4.949000000
H    -5.482000000     6.492000000    -6.382000000
O    -1.901000000     1.104000000    -7.726000000
H    -2.099000000     2.023000000    -7.549000000
H    -2.747000000     0.714000000    -7.943000000
O    -3.805000000     0.381000000    -5.000000000
H    -3.350000000     1.138000000    -4.631000000
H    -4.680000000     0.415000000    -4.614000000
O    -4.031000000    -0.237000000    -7.501000000
H    -4.657000000    -0.921000000    -7.739000000
H    -4.127000000    -0.144000000    -6.553000000
O     1.062000000     7.322000000    -3.558000000
H     1.607000000     7.259000000    -4.342000000
H     1.649000000     7.664000000    -2.884000000
O    -6.583000000     0.914000000    -5.358000000
H    -7.236000000     1.606000000    -5.251000000
H    -6.615000000     0.696000000    -6.289000000
O    -2.520000000     8.506000000    -2.083000000
H    -3.153000000     8.443000000    -1.368000000
H    -2.310000000     7.597000000    -2.297000000
O     0.036000000    -1.395000000    -7.898000000
H    -0.580000000    -1.263000000    -7.177000000
H    -0.286000000    -0.822000000    -8.595000000
O     1.502000000     2.962000000    -3.855000000
H     0.647000000     3.291000000    -3.579000000
H     1.479000000     2.029000000    -3.646000000
O    -1.988000000     4.474000000    -5.568000000
H    -1.920000000     5.349000000    -5.186000000
H    -1.774000000     3.881000000    -4.848000000
O    -3.067000000     3.612000000    -7.847000000
H    -2.794000000     4.342000000    -8.403000000
H    -2.675000000     3.801000000    -6.995000000
O    -1.293000000     6.201000000    -2.747000000
H    -1.199000000     5.249000000    -2.778000000
H    -0.432000000     6.535000000    -2.999000000
