215
-1436.20220
C     4.897000000    -0.910000000    -2.503000000
H     5.112000000    -1.917000000    -2.153000000
C     4.363000000     0.005000000    -1.610000000
C     3.932000000     1.301000000    -2.064000000
H     3.393000000     1.989000000    -1.417000000
C     4.187000000    -0.218000000    -0.049000000
O     4.769000000    -1.505000000     0.242000000
H     3.116000000    -0.234000000     0.200000000
O     4.849000000     0.780000000     0.772000000
C     4.065000000     1.129000000     1.927000000
C     3.394000000     2.324000000     1.990000000
H     3.552000000     2.923000000     1.097000000
C     2.601000000     2.684000000     3.033000000
O     1.923000000     3.858000000     2.868000000
C     2.451000000     1.848000000     4.121000000
C     1.427000000     2.297000000     5.192000000
H     1.702000000     1.740000000     6.090000000
C    -0.012000000     1.923000000     4.792000000
C    -0.485000000     0.614000000     5.009000000
H     0.034000000    -0.105000000     5.638000000
H     1.585000000     3.359000000     5.389000000
C     3.080000000     0.556000000     4.111000000
H     2.989000000    -0.098000000     4.974000000
C     3.898000000     0.181000000     2.991000000
C     4.525000000    -1.160000000     3.079000000
H     4.785000000    -1.499000000     4.084000000
H     5.453000000    -1.117000000     2.504000000
C     3.666000000    -2.246000000     2.325000000
C     2.703000000    -3.050000000     2.846000000
H     2.434000000    -2.923000000     3.892000000
C     3.956000000    -2.370000000     0.903000000
C     3.204000000    -3.268000000     0.124000000
H     3.376000000    -3.264000000    -0.949000000
C     2.165000000    -4.054000000     0.689000000
O     1.298000000    -4.814000000    -0.062000000
C    -0.021000000    -4.169000000    -0.285000000
C    -0.339000000    -4.252000000    -1.811000000
C    -1.727000000    -4.146000000    -2.259000000
H    -2.483000000    -4.089000000    -1.480000000
C     0.692000000    -4.194000000    -2.777000000
H     1.744000000    -4.218000000    -2.506000000
O    -1.040000000    -4.708000000     0.578000000
H     0.016000000    -3.076000000    -0.171000000
C     1.938000000    -3.984000000     2.099000000
C     0.883000000    -4.728000000     2.827000000
H     1.122000000    -5.015000000     3.853000000
H     0.749000000    -5.708000000     2.365000000
C    -0.398000000    -3.939000000     2.803000000
C    -0.627000000    -2.995000000     3.862000000
H     0.080000000    -2.707000000     4.636000000
C    -1.283000000    -4.059000000     1.733000000
C    -2.443000000    -3.437000000     1.748000000
H    -3.112000000    -3.565000000     0.901000000
C    -2.767000000    -2.545000000     2.747000000
O    -3.785000000    -1.656000000     2.384000000
C    -3.455000000    -0.294000000     1.967000000
C    -4.360000000     0.049000000     0.781000000
C    -5.088000000    -0.914000000     0.117000000
H    -5.250000000    -1.924000000     0.485000000
C    -4.382000000     1.357000000     0.322000000
H    -3.791000000     2.189000000     0.698000000
O    -3.651000000     0.624000000     3.077000000
H    -2.435000000    -0.137000000     1.584000000
C    -1.837000000    -2.264000000     3.718000000
C    -2.158000000    -1.262000000     4.821000000
H    -1.663000000    -1.552000000     5.750000000
H    -3.236000000    -1.351000000     4.970000000
C    -1.686000000     0.171000000     4.560000000
C    -2.516000000     1.011000000     3.776000000
C    -2.065000000     2.285000000     3.506000000
H    -2.571000000     2.904000000     2.770000000
C    -0.865000000     2.762000000     4.083000000
O    -0.325000000     3.927000000     3.667000000
C     0.532000000     3.779000000     2.493000000
H     0.301000000     2.822000000     2.002000000
C     0.138000000     4.861000000     1.524000000
C     0.983000000     5.205000000     0.450000000
H     1.988000000     4.791000000     0.461000000
C    -1.165000000     5.407000000     1.480000000
H    -1.911000000     5.118000000     2.216000000
C    -1.572000000     6.300000000     0.441000000
O    -2.833000000     6.840000000     0.262000000
C    -0.709000000     6.587000000    -0.558000000
H    -0.977000000     7.309000000    -1.325000000
C     0.548000000     6.062000000    -0.587000000
O     1.382000000     6.426000000    -1.656000000
C     2.582000000     5.816000000    -1.920000000
C     2.562000000     4.779000000    -2.830000000
H     1.620000000     4.560000000    -3.328000000
C     3.701000000     6.121000000    -1.181000000
H     3.881000000     6.984000000    -0.544000000
C     4.842000000     5.343000000    -1.379000000
H     5.669000000     5.456000000    -0.683000000
C     4.814000000     4.317000000    -2.244000000
H     5.716000000     3.727000000    -2.384000000
C     3.706000000     4.042000000    -2.997000000
O     3.679000000     2.862000000    -3.818000000
C     4.158000000     1.661000000    -3.410000000
C     4.633000000     0.692000000    -4.288000000
H     4.782000000     0.937000000    -5.337000000
C     5.069000000    -0.535000000    -3.816000000
O     5.476000000    -1.524000000    -4.742000000
C     4.773000000    -2.695000000    -4.848000000
C     3.328000000    -2.657000000    -4.900000000
H     2.859000000    -1.677000000    -4.854000000
C     5.467000000    -3.936000000    -4.809000000
H     6.528000000    -3.900000000    -4.580000000
C     4.793000000    -5.117000000    -4.784000000
H     5.443000000    -5.981000000    -4.673000000
C     3.377000000    -5.098000000    -4.732000000
H     2.856000000    -6.051000000    -4.688000000
C     2.671000000    -3.901000000    -4.906000000
O     1.292000000    -3.926000000    -5.054000000
C     0.334000000    -4.122000000    -4.121000000
C    -0.940000000    -4.229000000    -4.547000000
H    -1.188000000    -4.123000000    -5.600000000
C    -2.030000000    -4.243000000    -3.607000000
O    -3.330000000    -4.312000000    -4.065000000
C    -4.417000000    -4.149000000    -3.227000000
C    -4.764000000    -2.848000000    -2.722000000
H    -4.204000000    -1.961000000    -3.011000000
C    -5.161000000    -5.296000000    -2.872000000
H    -4.821000000    -6.294000000    -3.136000000
C    -6.359000000    -5.144000000    -2.117000000
H    -6.999000000    -5.993000000    -1.891000000
C    -6.707000000    -3.882000000    -1.689000000
H    -7.638000000    -3.755000000    -1.142000000
C    -5.947000000    -2.711000000    -2.026000000
O    -6.503000000    -1.577000000    -1.574000000
C    -5.778000000    -0.563000000    -0.990000000
C    -5.692000000     0.659000000    -1.570000000
H    -6.137000000     0.888000000    -2.535000000
C    -5.041000000     1.614000000    -0.890000000
O    -4.969000000     2.917000000    -1.392000000
C    -5.028000000     3.964000000    -0.532000000
C    -6.229000000     4.379000000     0.072000000
H    -7.010000000     3.623000000     0.068000000
C    -6.261000000     5.514000000     0.847000000
H    -7.083000000     5.726000000     1.526000000
C    -5.199000000     6.384000000     0.851000000
H    -5.215000000     7.217000000     1.550000000
C    -3.975000000     6.003000000     0.211000000
C    -3.932000000     4.809000000    -0.439000000
H    -3.020000000     4.511000000    -0.948000000
C    -1.674000000     0.417000000    -1.895000000
H    -2.536000000    -0.020000000    -2.394000000
C    -1.043000000    -0.320000000    -0.887000000
H    -1.402000000    -1.293000000    -0.562000000
C     0.102000000     0.170000000    -0.300000000
H     0.531000000    -0.497000000     0.496000000
C     0.576000000     1.353000000    -0.690000000
H     1.476000000     1.608000000    -0.136000000
C    -0.065000000     2.091000000    -1.614000000
H     0.403000000     3.029000000    -1.903000000
C    -1.234000000     1.637000000    -2.254000000
C    -1.786000000     2.353000000    -3.398000000
O    -1.436000000     3.471000000    -3.710000000
O    -2.565000000     1.768000000    -4.138000000
O     1.550000000     3.005000000    -8.262000000
H     2.350000000     3.496000000    -8.449000000
H     1.488000000     3.002000000    -7.307000000
O    -4.621000000     1.673000000    -8.669000000
H    -5.380000000     2.193000000    -8.406000000
H    -3.868000000     2.169000000    -8.346000000
O    -3.158000000     8.652000000    -4.430000000
H    -2.807000000     7.762000000    -4.474000000
H    -4.050000000     8.574000000    -4.769000000
O    -4.898000000     6.154000000    -3.097000000
H    -4.013000000     6.193000000    -3.458000000
H    -5.125000000     5.224000000    -3.120000000
O    -3.497000000     3.908000000    -7.288000000
H    -4.096000000     4.395000000    -7.854000000
H    -3.944000000     3.871000000    -6.442000000
O    -4.645000000     3.305000000    -4.730000000
H    -3.917000000     2.781000000    -4.396000000
H    -5.351000000     3.165000000    -4.098000000
O     0.936000000     0.085000000    -3.680000000
H     0.103000000    -0.027000000    -4.138000000
H     0.691000000     0.395000000    -2.809000000
O    -0.370000000     0.319000000    -6.438000000
H     0.124000000     1.122000000    -6.607000000
H    -1.086000000     0.595000000    -5.866000000
O    -2.513000000     5.887000000    -3.960000000
H    -2.107000000     5.020000000    -3.961000000
H    -2.118000000     6.335000000    -3.211000000
O    -1.349000000     6.067000000    -8.500000000
H    -1.341000000     5.710000000    -7.612000000
H    -2.043000000     6.726000000    -8.488000000
O    -3.785000000     0.294000000    -5.812000000
H    -3.404000000     0.778000000    -5.079000000
H    -4.078000000     0.973000000    -6.420000000
O    -5.917000000    -1.406000000    -6.165000000
H    -5.479000000    -2.241000000    -6.332000000
H    -5.234000000    -0.848000000    -5.791000000
O    -1.214000000     3.609000000    -9.227000000
H    -1.446000000     4.514000000    -9.017000000
H    -0.312000000     3.516000000    -8.919000000
O     2.841000000     0.609000000    -7.683000000
H     2.470000000     1.049000000    -8.448000000
H     2.363000000     0.978000000    -6.940000000
O    -7.227000000     3.781000000    -3.350000000
H    -7.535000000     3.921000000    -2.454000000
H    -7.842000000     3.147000000    -3.718000000
O     1.616000000     1.920000000    -5.610000000
H     2.386000000     2.244000000    -5.144000000
H     1.256000000     1.243000000    -5.037000000
O    -0.958000000     4.369000000    -6.250000000
H    -1.103000000     3.993000000    -5.381000000
H    -1.707000000     4.073000000    -6.767000000
O    -2.292000000    -1.439000000    -7.953000000
H    -2.945000000    -1.221000000    -7.287000000
H    -1.484000000    -1.035000000    -7.636000000
O     1.440000000     5.582000000    -6.376000000
H     0.624000000     5.086000000    -6.454000000
H     2.126000000     4.915000000    -6.377000000
