215
-1457.71568
C     4.746000000    -0.455000000    -2.669000000
H     5.127000000    -1.456000000    -2.485000000
C     4.345000000     0.464000000    -1.683000000
C     3.847000000     1.695000000    -2.124000000
H     3.565000000     2.407000000    -1.353000000
C     4.202000000     0.099000000    -0.257000000
O     4.750000000    -1.190000000     0.034000000
H     3.124000000    -0.072000000    -0.122000000
O     4.609000000     1.163000000     0.589000000
C     3.867000000     1.427000000     1.710000000
C     3.078000000     2.578000000     1.708000000
H     3.023000000     3.241000000     0.848000000
C     2.286000000     2.938000000     2.802000000
O     1.656000000     4.156000000     2.792000000
C     2.207000000     2.098000000     3.871000000
C     1.252000000     2.377000000     5.042000000
H     1.614000000     1.902000000     5.956000000
C    -0.168000000     1.942000000     4.654000000
C    -0.538000000     0.660000000     4.942000000
H     0.114000000     0.059000000     5.571000000
H     1.332000000     3.437000000     5.291000000
C     2.830000000     0.887000000     3.779000000
H     2.768000000     0.208000000     4.626000000
C     3.823000000     0.627000000     2.824000000
C     4.669000000    -0.677000000     2.837000000
H     4.858000000    -0.870000000     3.895000000
H     5.657000000    -0.489000000     2.411000000
C     3.915000000    -1.872000000     2.189000000
C     3.192000000    -2.760000000     2.990000000
H     3.199000000    -2.727000000     4.077000000
C     4.022000000    -2.075000000     0.798000000
C     3.305000000    -3.072000000     0.163000000
H     3.275000000    -3.169000000    -0.919000000
C     2.381000000    -3.863000000     0.905000000
O     1.556000000    -4.698000000     0.159000000
C     0.185000000    -4.300000000    -0.081000000
C    -0.162000000    -4.583000000    -1.527000000
C    -1.442000000    -5.056000000    -1.804000000
H    -2.210000000    -5.242000000    -1.058000000
C     0.684000000    -4.171000000    -2.508000000
H     1.652000000    -3.754000000    -2.244000000
O    -0.681000000    -5.068000000     0.875000000
H     0.188000000    -3.207000000     0.045000000
C     2.306000000    -3.632000000     2.310000000
C     1.280000000    -4.448000000     3.170000000
H     1.618000000    -4.531000000     4.205000000
H     1.281000000    -5.467000000     2.778000000
C    -0.177000000    -3.974000000     3.088000000
C    -0.571000000    -3.053000000     3.944000000
H     0.110000000    -2.801000000     4.753000000
C    -1.062000000    -4.354000000     2.033000000
C    -2.313000000    -3.798000000     1.934000000
H    -2.993000000    -4.061000000     1.127000000
C    -2.580000000    -2.723000000     2.769000000
O    -3.657000000    -1.904000000     2.505000000
C    -3.390000000    -0.652000000     1.916000000
C    -4.255000000    -0.415000000     0.714000000
C    -4.922000000    -1.383000000    -0.036000000
H    -4.877000000    -2.422000000     0.279000000
C    -4.306000000     0.905000000     0.223000000
H    -3.739000000     1.703000000     0.696000000
O    -3.645000000     0.290000000     3.005000000
H    -2.376000000    -0.655000000     1.491000000
C    -1.752000000    -2.395000000     3.863000000
C    -2.173000000    -1.360000000     4.919000000
H    -1.623000000    -1.606000000     5.830000000
H    -3.219000000    -1.506000000     5.196000000
C    -1.731000000     0.077000000     4.435000000
C    -2.614000000     0.854000000     3.689000000
C    -2.170000000     2.154000000     3.308000000
H    -2.792000000     2.768000000     2.663000000
C    -0.997000000     2.697000000     3.801000000
O    -0.680000000     3.897000000     3.337000000
C     0.297000000     3.989000000     2.261000000
H     0.193000000     3.066000000     1.671000000
C    -0.065000000     5.193000000     1.279000000
C     0.959000000     5.858000000     0.553000000
H     2.005000000     5.589000000     0.679000000
C    -1.394000000     5.461000000     0.987000000
H    -2.143000000     4.973000000     1.605000000
C    -1.760000000     6.347000000    -0.039000000
O    -3.007000000     6.658000000    -0.390000000
C    -0.751000000     6.970000000    -0.778000000
H    -1.105000000     7.654000000    -1.544000000
C     0.586000000     6.592000000    -0.542000000
O     1.569000000     7.134000000    -1.361000000
C     2.553000000     6.289000000    -1.843000000
C     2.258000000     5.157000000    -2.598000000
H     1.275000000     4.711000000    -2.725000000
C     3.827000000     6.733000000    -1.584000000
H     4.092000000     7.555000000    -0.925000000
C     4.883000000     5.888000000    -2.023000000
H     5.928000000     6.051000000    -1.769000000
C     4.643000000     4.811000000    -2.833000000
H     5.481000000     4.208000000    -3.172000000
C     3.318000000     4.403000000    -3.171000000
O     3.104000000     3.272000000    -3.814000000
C     3.677000000     2.074000000    -3.483000000
C     4.077000000     1.118000000    -4.386000000
H     3.726000000     1.245000000    -5.407000000
C     4.548000000    -0.097000000    -3.968000000
O     4.878000000    -1.027000000    -4.948000000
C     4.376000000    -2.340000000    -4.892000000
C     2.971000000    -2.526000000    -4.770000000
H     2.219000000    -1.742000000    -4.795000000
C     5.324000000    -3.312000000    -4.684000000
H     6.402000000    -3.172000000    -4.715000000
C     4.781000000    -4.594000000    -4.468000000
H     5.528000000    -5.366000000    -4.305000000
C     3.423000000    -4.864000000    -4.568000000
H     3.063000000    -5.885000000    -4.465000000
C     2.536000000    -3.848000000    -4.657000000
O     1.183000000    -4.074000000    -4.804000000
C     0.312000000    -4.362000000    -3.841000000
C    -0.981000000    -4.787000000    -4.192000000
H    -1.289000000    -4.862000000    -5.232000000
C    -1.867000000    -5.139000000    -3.186000000
O    -3.103000000    -5.705000000    -3.396000000
C    -4.136000000    -5.229000000    -2.671000000
C    -4.357000000    -3.843000000    -2.503000000
H    -3.637000000    -3.160000000    -2.946000000
C    -4.982000000    -6.079000000    -2.023000000
H    -4.754000000    -7.142000000    -2.021000000
C    -6.082000000    -5.564000000    -1.327000000
H    -6.722000000    -6.251000000    -0.778000000
C    -6.423000000    -4.232000000    -1.317000000
H    -7.311000000    -3.792000000    -0.869000000
C    -5.589000000    -3.347000000    -1.976000000
O    -5.906000000    -2.043000000    -2.119000000
C    -5.554000000    -1.067000000    -1.230000000
C    -5.703000000     0.235000000    -1.657000000
H    -6.061000000     0.511000000    -2.646000000
C    -5.069000000     1.225000000    -0.892000000
O    -4.943000000     2.476000000    -1.445000000
C    -5.107000000     3.599000000    -0.688000000
C    -6.189000000     3.830000000     0.230000000
H    -6.984000000     3.120000000     0.444000000
C    -6.153000000     5.050000000     0.901000000
H    -6.918000000     5.333000000     1.619000000
C    -5.098000000     5.973000000     0.771000000
H    -5.178000000     6.879000000     1.366000000
C    -4.010000000     5.728000000    -0.156000000
C    -4.063000000     4.541000000    -0.881000000
H    -3.224000000     4.246000000    -1.505000000
C    -1.565000000     0.053000000    -2.056000000
H    -2.318000000    -0.400000000    -2.696000000
C    -1.042000000    -0.669000000    -0.994000000
H    -1.227000000    -1.740000000    -0.987000000
C    -0.128000000    -0.167000000    -0.122000000
H     0.424000000    -0.794000000     0.538000000
C     0.287000000     1.225000000    -0.231000000
H     1.008000000     1.647000000     0.463000000
C    -0.387000000     1.979000000    -1.248000000
H    -0.265000000     3.059000000    -1.278000000
C    -1.208000000     1.358000000    -2.191000000
C    -1.799000000     2.087000000    -3.321000000
O    -1.851000000     3.303000000    -3.375000000
O    -1.956000000     1.459000000    -4.339000000
O    -4.013000000     2.058000000    -7.205000000
H    -3.975000000     3.015000000    -7.210000000
H    -3.101000000     1.781000000    -7.294000000
O    -3.799000000     7.907000000    -3.080000000
H    -3.097000000     7.259000000    -3.029000000
H    -4.578000000     7.400000000    -3.308000000
O    -5.853000000     5.909000000    -3.357000000
H    -5.285000000     5.152000000    -3.214000000
H    -6.462000000     5.625000000    -4.039000000
O    -4.337000000     4.848000000    -7.047000000
H    -5.222000000     4.628000000    -7.339000000
H    -4.377000000     4.786000000    -6.093000000
O    -4.365000000     3.822000000    -4.464000000
H    -3.578000000     3.408000000    -4.110000000
H    -5.057000000     3.174000000    -4.331000000
O     0.046000000    -0.497000000    -4.623000000
H    -0.591000000     0.217000000    -4.613000000
H    -0.478000000    -1.287000000    -4.491000000
O    -1.327000000     1.382000000    -6.985000000
H    -0.439000000     1.526000000    -7.311000000
H    -1.297000000     1.665000000    -6.072000000
O    -1.933000000     5.955000000    -3.662000000
H    -2.005000000     5.038000000    -3.399000000
H    -1.450000000     5.931000000    -4.488000000
O    -6.987000000     2.807000000    -4.306000000
H    -7.473000000     3.589000000    -4.568000000
H    -7.313000000     2.604000000    -3.430000000
O    -2.612000000     0.696000000    -9.709000000
H    -3.187000000     1.350000000   -10.105000000
H    -2.461000000     1.016000000    -8.820000000
O    -6.740000000     2.107000000    -7.048000000
H    -6.974000000     2.223000000    -6.127000000
H    -5.788000000     2.007000000    -7.043000000
O    -0.815000000     6.378000000    -6.296000000
H     0.045000000     6.641000000    -6.623000000
H    -1.426000000     6.983000000    -6.716000000
O    -4.230000000     0.162000000    -5.231000000
H    -3.420000000     0.488000000    -4.839000000
H    -4.369000000     0.721000000    -5.995000000
O    -6.122000000    -1.737000000    -5.086000000
H    -6.045000000    -2.593000000    -4.665000000
H    -5.219000000    -1.431000000    -5.174000000
O    -1.004000000     3.672000000    -8.723000000
H    -0.827000000     3.679000000    -7.782000000
H    -0.162000000     3.882000000    -9.127000000
O    -0.089000000    -2.080000000    -7.392000000
H    -0.952000000    -2.182000000    -6.989000000
H     0.514000000    -2.014000000    -6.651000000
O     1.447000000     1.411000000    -6.506000000
H     1.008000000     2.192000000    -6.170000000
H     1.435000000     0.795000000    -5.773000000
O     0.115000000     3.529000000    -5.372000000
H    -0.624000000     3.324000000    -4.798000000
H    -0.010000000     4.449000000    -5.604000000
O    -2.854000000    -2.162000000    -6.010000000
H    -3.389000000    -2.461000000    -6.745000000
H    -3.317000000    -1.395000000    -5.673000000
