215
-1433.28488
C     4.901000000    -0.649000000    -2.418000000
H     4.768000000    -1.661000000    -2.043000000
C     4.859000000     0.376000000    -1.519000000
C     5.140000000     1.695000000    -1.903000000
H     4.955000000     2.532000000    -1.234000000
C     4.460000000     0.049000000    -0.078000000
O     4.898000000    -1.339000000     0.271000000
H     3.361000000     0.075000000    -0.125000000
O     4.993000000     1.066000000     0.867000000
C     4.212000000     1.457000000     1.858000000
C     3.513000000     2.672000000     1.699000000
H     3.614000000     3.411000000     0.909000000
C     2.501000000     2.889000000     2.590000000
O     1.664000000     3.938000000     2.372000000
C     2.238000000     2.000000000     3.642000000
C     1.138000000     2.230000000     4.704000000
H     1.498000000     1.677000000     5.574000000
C    -0.248000000     1.883000000     4.235000000
C    -0.830000000     0.764000000     4.781000000
H    -0.164000000     0.170000000     5.403000000
H     1.154000000     3.262000000     5.062000000
C     2.893000000     0.766000000     3.684000000
H     2.671000000     0.074000000     4.492000000
C     3.952000000     0.494000000     2.865000000
C     4.599000000    -0.870000000     3.108000000
H     4.683000000    -0.977000000     4.192000000
H     5.614000000    -0.672000000     2.757000000
C     3.799000000    -1.969000000     2.390000000
C     2.773000000    -2.611000000     3.024000000
H     2.519000000    -2.217000000     4.005000000
C     3.943000000    -2.100000000     0.968000000
C     3.214000000    -3.043000000     0.272000000
H     3.455000000    -3.098000000    -0.787000000
C     2.238000000    -3.803000000     0.944000000
O     1.393000000    -4.625000000     0.254000000
C     0.047000000    -4.139000000     0.119000000
C    -0.449000000    -4.163000000    -1.331000000
C    -1.746000000    -4.617000000    -1.741000000
H    -2.463000000    -5.094000000    -1.078000000
C     0.400000000    -3.753000000    -2.329000000
H     1.355000000    -3.317000000    -2.045000000
O    -0.862000000    -4.851000000     1.057000000
H    -0.001000000    -3.068000000     0.367000000
C     2.025000000    -3.565000000     2.351000000
C     1.047000000    -4.269000000     3.149000000
H     1.303000000    -4.332000000     4.209000000
H     1.016000000    -5.299000000     2.787000000
C    -0.373000000    -3.765000000     3.079000000
C    -0.818000000    -2.755000000     3.951000000
H    -0.114000000    -2.436000000     4.715000000
C    -1.234000000    -4.110000000     2.063000000
C    -2.536000000    -3.633000000     2.042000000
H    -3.301000000    -3.953000000     1.340000000
C    -2.872000000    -2.566000000     2.822000000
O    -3.983000000    -1.822000000     2.614000000
C    -3.849000000    -0.468000000     1.949000000
C    -4.763000000    -0.238000000     0.738000000
C    -5.221000000    -1.299000000    -0.080000000
H    -4.858000000    -2.300000000     0.139000000
C    -5.149000000     1.100000000     0.482000000
H    -4.862000000     1.964000000     1.076000000
O    -4.042000000     0.512000000     2.951000000
H    -2.814000000    -0.451000000     1.577000000
C    -2.074000000    -2.144000000     3.825000000
C    -2.498000000    -1.085000000     4.846000000
H    -2.116000000    -1.404000000     5.818000000
H    -3.584000000    -1.081000000     4.956000000
C    -2.058000000     0.295000000     4.397000000
C    -2.829000000     1.037000000     3.437000000
C    -2.331000000     2.296000000     3.026000000
H    -2.974000000     3.034000000     2.552000000
C    -1.043000000     2.698000000     3.378000000
O    -0.582000000     3.890000000     2.992000000
C     0.388000000     3.757000000     1.912000000
H     0.282000000     2.708000000     1.597000000
C     0.082000000     4.688000000     0.715000000
C     1.071000000     5.135000000    -0.122000000
H     2.071000000     4.779000000     0.115000000
C    -1.269000000     4.944000000     0.393000000
H    -2.063000000     4.432000000     0.930000000
C    -1.552000000     5.575000000    -0.844000000
O    -2.831000000     5.692000000    -1.318000000
C    -0.490000000     6.040000000    -1.662000000
H    -0.701000000     6.630000000    -2.551000000
C     0.866000000     5.798000000    -1.332000000
O     1.866000000     6.198000000    -2.147000000
C     3.144000000     5.702000000    -2.046000000
C     3.583000000     4.687000000    -2.848000000
H     2.869000000     4.058000000    -3.373000000
C     4.132000000     6.444000000    -1.375000000
H     3.856000000     7.384000000    -0.905000000
C     5.511000000     6.165000000    -1.551000000
H     6.260000000     6.857000000    -1.175000000
C     5.909000000     5.057000000    -2.308000000
H     6.931000000     4.691000000    -2.361000000
C     4.927000000     4.375000000    -2.966000000
O     5.365000000     3.248000000    -3.732000000
C     5.357000000     1.975000000    -3.219000000
C     5.526000000     0.880000000    -4.124000000
H     5.936000000     1.092000000    -5.108000000
C     5.275000000    -0.416000000    -3.695000000
O     5.217000000    -1.417000000    -4.634000000
C     4.480000000    -2.541000000    -4.545000000
C     3.201000000    -2.533000000    -4.911000000
H     2.892000000    -1.693000000    -5.527000000
C     5.023000000    -3.626000000    -3.858000000
H     6.088000000    -3.607000000    -3.640000000
C     4.276000000    -4.795000000    -3.686000000
H     4.677000000    -5.586000000    -3.058000000
C     2.912000000    -4.681000000    -3.875000000
H     2.167000000    -5.402000000    -3.547000000
C     2.370000000    -3.560000000    -4.570000000
O     1.009000000    -3.561000000    -4.707000000
C     0.057000000    -3.880000000    -3.711000000
C    -1.144000000    -4.337000000    -4.100000000
H    -1.409000000    -4.304000000    -5.153000000
C    -2.022000000    -4.726000000    -3.112000000
O    -3.278000000    -5.108000000    -3.600000000
C    -4.444000000    -4.814000000    -2.871000000
C    -4.949000000    -3.557000000    -2.679000000
H    -4.370000000    -2.741000000    -3.103000000
C    -5.252000000    -5.873000000    -2.483000000
H    -4.977000000    -6.915000000    -2.623000000
C    -6.496000000    -5.663000000    -1.890000000
H    -7.131000000    -6.472000000    -1.537000000
C    -6.969000000    -4.398000000    -1.668000000
H    -7.798000000    -4.175000000    -1.001000000
C    -6.151000000    -3.367000000    -1.999000000
O    -6.659000000    -2.045000000    -1.850000000
C    -6.061000000    -1.035000000    -1.195000000
C    -6.369000000     0.299000000    -1.446000000
H    -7.061000000     0.601000000    -2.228000000
C    -5.931000000     1.336000000    -0.643000000
O    -6.379000000     2.564000000    -0.956000000
C    -5.791000000     3.728000000    -0.530000000
C    -6.204000000     4.279000000     0.732000000
H    -7.057000000     3.770000000     1.173000000
C    -5.387000000     5.221000000     1.319000000
H    -5.546000000     5.622000000     2.317000000
C    -4.247000000     5.724000000     0.603000000
H    -3.619000000     6.514000000     1.007000000
C    -3.935000000     5.214000000    -0.674000000
C    -4.729000000     4.249000000    -1.254000000
H    -4.425000000     3.957000000    -2.256000000
C    -2.247000000     0.058000000    -1.761000000
H    -3.139000000    -0.413000000    -2.166000000
C    -1.554000000    -0.589000000    -0.744000000
H    -1.934000000    -1.529000000    -0.352000000
C    -0.429000000     0.051000000    -0.182000000
H     0.084000000    -0.313000000     0.653000000
C     0.061000000     1.211000000    -0.757000000
H     1.014000000     1.561000000    -0.368000000
C    -0.660000000     1.910000000    -1.751000000
H    -0.176000000     2.829000000    -2.071000000
C    -1.860000000     1.313000000    -2.256000000
C    -2.699000000     2.005000000    -3.333000000
O    -2.253000000     2.957000000    -3.930000000
O    -3.766000000     1.545000000    -3.670000000
O    -5.245000000     4.022000000    -8.272000000
H    -4.537000000     3.474000000    -7.932000000
H    -5.932000000     3.964000000    -7.609000000
O    -4.169000000     7.873000000    -3.905000000
H    -3.851000000     6.975000000    -3.996000000
H    -3.853000000     8.153000000    -3.046000000
O    -7.284000000     5.147000000    -3.201000000
H    -7.188000000     4.295000000    -2.776000000
H    -6.646000000     5.133000000    -3.914000000
O    -6.195000000     2.449000000    -4.258000000
H    -5.283000000     2.198000000    -4.114000000
H    -6.689000000     1.941000000    -3.615000000
O     0.565000000    -0.681000000    -3.644000000
H     0.440000000    -0.233000000    -2.807000000
H     0.995000000    -1.504000000    -3.412000000
O    -2.790000000     2.739000000    -6.482000000
H    -2.877000000     2.420000000    -5.584000000
H    -1.955000000     3.207000000    -6.490000000
O    -3.394000000     5.257000000    -4.996000000
H    -3.031000000     4.601000000    -4.401000000
H    -3.058000000     5.009000000    -5.858000000
O    -2.856000000     1.087000000    -8.752000000
H    -3.772000000     0.835000000    -8.871000000
H    -2.837000000     1.522000000    -7.899000000
O    -7.308000000     1.347000000    -6.975000000
H    -8.148000000     0.889000000    -6.996000000
H    -7.374000000     1.934000000    -6.221000000
O    -7.489000000     4.113000000    -6.165000000
H    -8.378000000     3.878000000    -5.899000000
H    -6.925000000     3.534000000    -5.653000000
O    -1.508000000     4.983000000    -7.518000000
H    -1.987000000     5.750000000    -7.832000000
H    -1.698000000     4.301000000    -8.162000000
O    -4.356000000    -0.423000000    -5.432000000
H    -3.455000000    -0.536000000    -5.734000000
H    -4.301000000     0.268000000    -4.771000000
O    -6.798000000    -1.459000000    -5.728000000
H    -7.323000000    -0.832000000    -6.227000000
H    -5.952000000    -1.026000000    -5.616000000
O    -1.506000000    -1.380000000    -9.138000000
H    -1.880000000    -0.530000000    -8.904000000
H    -1.851000000    -1.982000000    -8.478000000
O    -1.852000000    -1.249000000    -6.043000000
H    -1.382000000    -1.621000000    -5.297000000
H    -1.332000000    -0.487000000    -6.298000000
O    -5.492000000     0.517000000    -9.011000000
H    -6.041000000     0.674000000    -9.779000000
H    -6.062000000     0.710000000    -8.266000000
O     0.629000000     0.659000000    -6.316000000
H     0.552000000     1.568000000    -6.025000000
H     0.641000000     0.149000000    -5.506000000
O     0.195000000     3.239000000    -5.275000000
H    -0.596000000     3.416000000    -4.765000000
H     0.644000000     4.083000000    -5.321000000
O    -3.499000000    -3.031000000    -7.680000000
H    -2.790000000    -3.650000000    -7.503000000
H    -3.450000000    -2.399000000    -6.963000000
