215
-1464.67761
C     4.200000000    -1.758000000    -2.420000000
H     3.678000000    -2.672000000    -2.147000000
C     4.481000000    -0.855000000    -1.431000000
C     5.041000000     0.379000000    -1.761000000
H     4.999000000     1.148000000    -0.994000000
C     4.047000000    -1.109000000     0.058000000
O     4.290000000    -2.430000000     0.394000000
H     2.968000000    -0.894000000     0.075000000
O     4.723000000    -0.273000000     1.033000000
C     3.987000000     0.314000000     2.027000000
C     3.501000000     1.591000000     1.785000000
H     3.935000000     2.054000000     0.902000000
C     2.831000000     2.176000000     2.830000000
O     2.501000000     3.524000000     2.638000000
C     2.395000000     1.430000000     4.008000000
C     1.504000000     2.123000000     5.101000000
H     1.578000000     1.600000000     6.057000000
C     0.085000000     2.005000000     4.584000000
C    -0.682000000     0.913000000     5.000000000
H    -0.336000000     0.203000000     5.747000000
H     1.894000000     3.101000000     5.390000000
C     2.798000000     0.107000000     4.113000000
H     2.426000000    -0.535000000     4.907000000
C     3.646000000    -0.460000000     3.134000000
C     4.077000000    -1.912000000     3.267000000
H     4.230000000    -2.197000000     4.310000000
H     5.071000000    -2.042000000     2.836000000
C     3.141000000    -2.901000000     2.504000000
C     2.104000000    -3.491000000     3.203000000
H     1.938000000    -3.220000000     4.243000000
C     3.338000000    -3.108000000     1.146000000
C     2.493000000    -3.998000000     0.465000000
H     2.650000000    -4.196000000    -0.592000000
C     1.403000000    -4.538000000     1.136000000
O     0.410000000    -5.183000000     0.318000000
C    -0.720000000    -4.332000000    -0.022000000
C    -1.099000000    -4.423000000    -1.455000000
C    -2.377000000    -3.966000000    -1.793000000
H    -3.178000000    -3.934000000    -1.058000000
C    -0.170000000    -4.636000000    -2.464000000
H     0.882000000    -4.824000000    -2.265000000
O    -1.799000000    -4.526000000     0.886000000
H    -0.425000000    -3.279000000     0.094000000
C     1.164000000    -4.178000000     2.458000000
C    -0.122000000    -4.618000000     3.122000000
H     0.066000000    -4.924000000     4.154000000
H    -0.384000000    -5.582000000     2.680000000
C    -1.231000000    -3.577000000     3.013000000
C    -1.479000000    -2.613000000     3.938000000
H    -0.789000000    -2.608000000     4.777000000
C    -2.082000000    -3.657000000     1.926000000
C    -3.198000000    -2.829000000     1.832000000
H    -3.846000000    -2.884000000     0.960000000
C    -3.398000000    -1.815000000     2.757000000
O    -4.289000000    -0.813000000     2.359000000
C    -3.743000000     0.443000000     1.899000000
C    -4.539000000     0.939000000     0.766000000
C    -5.697000000     0.260000000     0.179000000
H    -6.129000000    -0.654000000     0.579000000
C    -4.157000000     2.179000000     0.139000000
H    -3.338000000     2.724000000     0.601000000
O    -3.646000000     1.561000000     2.847000000
H    -2.718000000     0.249000000     1.552000000
C    -2.554000000    -1.753000000     3.874000000
C    -2.742000000    -0.585000000     4.767000000
H    -2.441000000    -1.014000000     5.725000000
H    -3.807000000    -0.355000000     4.844000000
C    -1.968000000     0.707000000     4.466000000
C    -2.484000000     1.740000000     3.553000000
C    -1.765000000     2.917000000     3.283000000
H    -2.093000000     3.635000000     2.536000000
C    -0.501000000     3.039000000     3.776000000
O     0.335000000     4.078000000     3.350000000
C     1.119000000     3.757000000     2.176000000
H     0.758000000     2.848000000     1.672000000
C     1.064000000     4.854000000     1.079000000
C     2.051000000     4.689000000     0.090000000
H     2.915000000     4.033000000     0.155000000
C     0.048000000     5.749000000     0.956000000
H    -0.730000000     5.679000000     1.712000000
C    -0.057000000     6.470000000    -0.238000000
O    -1.176000000     7.144000000    -0.549000000
C     0.875000000     6.258000000    -1.251000000
H     0.704000000     6.725000000    -2.218000000
C     1.923000000     5.414000000    -1.094000000
O     2.745000000     5.366000000    -2.195000000
C     4.041000000     4.865000000    -2.202000000
C     4.348000000     3.651000000    -2.884000000
H     3.539000000     3.249000000    -3.489000000
C     5.032000000     5.532000000    -1.456000000
H     4.802000000     6.366000000    -0.799000000
C     6.290000000     4.877000000    -1.379000000
H     7.127000000     5.222000000    -0.777000000
C     6.623000000     3.740000000    -2.136000000
H     7.584000000     3.255000000    -1.988000000
C     5.615000000     3.079000000    -2.866000000
O     5.872000000     1.928000000    -3.488000000
C     5.445000000     0.692000000    -3.077000000
C     5.159000000    -0.222000000    -4.081000000
H     5.178000000     0.051000000    -5.133000000
C     4.499000000    -1.412000000    -3.781000000
O     4.025000000    -2.160000000    -4.840000000
C     3.569000000    -3.442000000    -4.683000000
C     2.228000000    -3.672000000    -4.923000000
H     1.630000000    -2.868000000    -5.345000000
C     4.422000000    -4.511000000    -4.390000000
H     5.431000000    -4.283000000    -4.059000000
C     3.942000000    -5.773000000    -4.207000000
H     4.616000000    -6.570000000    -3.904000000
C     2.615000000    -5.990000000    -4.405000000
H     2.271000000    -6.992000000    -4.161000000
C     1.718000000    -4.973000000    -4.759000000
O     0.347000000    -5.028000000    -4.857000000
C    -0.516000000    -4.609000000    -3.848000000
C    -1.798000000    -4.231000000    -4.156000000
H    -2.124000000    -4.190000000    -5.193000000
C    -2.745000000    -3.924000000    -3.153000000
O    -3.982000000    -3.496000000    -3.607000000
C    -5.155000000    -3.181000000    -2.937000000
C    -5.379000000    -1.906000000    -2.343000000
H    -4.659000000    -1.098000000    -2.439000000
C    -6.158000000    -4.141000000    -2.970000000
H    -5.961000000    -5.077000000    -3.488000000
C    -7.466000000    -3.817000000    -2.578000000
H    -8.251000000    -4.561000000    -2.688000000
C    -7.665000000    -2.525000000    -1.976000000
H    -8.668000000    -2.274000000    -1.641000000
C    -6.689000000    -1.565000000    -1.992000000
O    -6.994000000    -0.202000000    -1.800000000
C    -6.157000000     0.637000000    -1.129000000
C    -5.667000000     1.853000000    -1.726000000
H    -6.011000000     2.209000000    -2.694000000
C    -4.676000000     2.559000000    -1.042000000
O    -4.246000000     3.761000000    -1.579000000
C    -3.990000000     4.905000000    -0.896000000
C    -4.860000000     5.370000000     0.104000000
H    -5.826000000     4.906000000     0.285000000
C    -4.569000000     6.583000000     0.726000000
H    -5.177000000     7.044000000     1.500000000
C    -3.361000000     7.236000000     0.490000000
H    -3.184000000     8.148000000     1.053000000
C    -2.425000000     6.603000000    -0.346000000
C    -2.730000000     5.395000000    -1.014000000
H    -1.974000000     4.955000000    -1.659000000
C    -1.875000000     0.091000000    -1.459000000
H    -2.694000000    -0.086000000    -2.151000000
C    -1.730000000    -0.792000000    -0.391000000
H    -2.483000000    -1.575000000    -0.366000000
C    -0.762000000    -0.641000000     0.574000000
H    -0.804000000    -1.263000000     1.463000000
C     0.057000000     0.518000000     0.543000000
H     0.809000000     0.711000000     1.303000000
C    -0.054000000     1.393000000    -0.557000000
H     0.477000000     2.340000000    -0.608000000
C    -1.081000000     1.220000000    -1.504000000
C    -1.190000000     2.229000000    -2.649000000
O    -0.576000000     3.256000000    -2.708000000
O    -1.989000000     1.919000000    -3.513000000
O    -2.454000000     5.243000000    -9.216000000
H    -1.740000000     4.995000000    -8.628000000
H    -2.835000000     6.024000000    -8.815000000
O     0.086000000     1.206000000    -8.001000000
H     0.664000000     1.046000000    -7.255000000
H    -0.571000000     1.816000000    -7.668000000
O    -4.769000000     3.302000000    -7.042000000
H    -4.132000000     3.526000000    -6.364000000
H    -5.432000000     2.784000000    -6.586000000
O    -3.627000000     7.849000000    -5.068000000
H    -3.632000000     8.762000000    -4.777000000
H    -4.411000000     7.468000000    -4.672000000
O    -6.457000000     4.804000000    -4.596000000
H    -5.535000000     4.580000000    -4.466000000
H    -6.616000000     4.631000000    -5.524000000
O    -3.465000000     4.008000000    -4.654000000
H    -2.983000000     4.768000000    -4.327000000
H    -3.077000000     3.263000000    -4.195000000
O     1.162000000    -1.294000000    -3.586000000
H     0.476000000    -1.770000000    -3.116000000
H     1.489000000    -0.656000000    -2.952000000
O     1.899000000     4.711000000    -5.623000000
H     2.109000000     4.020000000    -4.994000000
H     2.735000000     4.917000000    -6.040000000
O    -1.468000000     2.411000000    -6.248000000
H    -1.546000000     3.308000000    -5.921000000
H    -1.832000000     1.869000000    -5.548000000
O    -0.432000000     5.275000000    -4.410000000
H     0.460000000     5.121000000    -4.719000000
H    -0.613000000     4.541000000    -3.823000000
O    -0.084000000     8.344000000    -4.358000000
H    -0.458000000     7.469000000    -4.466000000
H    -0.099000000     8.721000000    -5.238000000
O     1.439000000    -0.563000000    -6.237000000
H     1.291000000    -0.797000000    -5.321000000
H     1.010000000    -1.259000000    -6.735000000
O    -6.927000000     1.364000000    -5.498000000
H    -6.515000000     1.277000000    -4.639000000
H    -7.819000000     1.039000000    -5.371000000
O     0.079000000     4.900000000    -7.696000000
H     0.487000000     5.562000000    -8.254000000
H     0.516000000     4.998000000    -6.850000000
O    -5.688000000    -1.709000000    -5.740000000
H    -4.816000000    -2.069000000    -5.581000000
H    -5.667000000    -0.842000000    -5.334000000
O    -3.859000000     0.407000000    -4.394000000
H    -3.321000000    -0.120000000    -4.985000000
H    -3.251000000     1.045000000    -4.021000000
O    -2.053000000    -0.519000000    -6.194000000
H    -1.229000000    -0.065000000    -6.016000000
H    -2.017000000    -0.723000000    -7.128000000
O     1.300000000     2.313000000    -4.314000000
H     0.837000000     2.786000000    -3.622000000
H     0.633000000     2.153000000    -4.982000000
O     3.204000000     1.522000000    -6.238000000
H     2.721000000     1.633000000    -5.419000000
H     3.271000000     0.574000000    -6.349000000
