215
-1458.92191
C     4.380000000    -1.928000000    -2.861000000
H     4.320000000    -2.981000000    -2.601000000
C     4.374000000    -0.922000000    -1.837000000
C     4.339000000     0.440000000    -2.257000000
H     4.315000000     1.200000000    -1.480000000
C     4.077000000    -1.235000000    -0.421000000
O     4.331000000    -2.637000000    -0.101000000
H     3.095000000    -0.931000000    -0.029000000
O     4.948000000    -0.465000000     0.413000000
C     4.362000000     0.083000000     1.590000000
C     4.013000000     1.397000000     1.527000000
H     4.353000000     1.990000000     0.682000000
C     3.233000000     1.900000000     2.626000000
O     2.792000000     3.188000000     2.475000000
C     2.871000000     1.134000000     3.702000000
C     2.046000000     1.662000000     4.872000000
H     2.221000000     1.100000000     5.791000000
C     0.555000000     1.522000000     4.547000000
C    -0.197000000     0.444000000     4.952000000
H     0.204000000    -0.393000000     5.517000000
H     2.299000000     2.694000000     5.121000000
C     3.296000000    -0.204000000     3.768000000
H     3.066000000    -0.848000000     4.614000000
C     3.987000000    -0.665000000     2.736000000
C     4.376000000    -2.112000000     2.765000000
H     4.529000000    -2.468000000     3.786000000
H     5.329000000    -2.206000000     2.238000000
C     3.361000000    -2.956000000     2.040000000
C     2.296000000    -3.454000000     2.805000000
H     2.319000000    -3.224000000     3.867000000
C     3.456000000    -3.254000000     0.679000000
C     2.420000000    -3.926000000     0.008000000
H     2.475000000    -3.900000000    -1.078000000
C     1.351000000    -4.314000000     0.745000000
O     0.251000000    -4.808000000     0.064000000
C    -0.879000000    -3.934000000    -0.112000000
C    -1.333000000    -3.951000000    -1.531000000
C    -2.463000000    -3.177000000    -1.839000000
H    -3.018000000    -2.737000000    -1.015000000
C    -0.527000000    -4.372000000    -2.605000000
H     0.428000000    -4.836000000    -2.373000000
O    -1.961000000    -4.280000000     0.755000000
H    -0.604000000    -2.890000000     0.098000000
C     1.249000000    -4.103000000     2.151000000
C     0.040000000    -4.622000000     2.916000000
H     0.288000000    -4.918000000     3.937000000
H    -0.258000000    -5.526000000     2.381000000
C    -1.112000000    -3.672000000     2.969000000
C    -1.233000000    -2.809000000     4.055000000
H    -0.453000000    -2.787000000     4.813000000
C    -2.061000000    -3.609000000     1.929000000
C    -3.211000000    -2.744000000     2.016000000
H    -3.994000000    -2.754000000     1.262000000
C    -3.255000000    -1.871000000     3.068000000
O    -4.097000000    -0.821000000     2.894000000
C    -3.701000000     0.417000000     2.323000000
C    -4.707000000     1.036000000     1.420000000
C    -5.616000000     0.186000000     0.720000000
H    -5.453000000    -0.888000000     0.778000000
C    -4.747000000     2.401000000     1.205000000
H    -4.046000000     3.102000000     1.649000000
O    -3.383000000     1.276000000     3.448000000
H    -2.789000000     0.237000000     1.735000000
C    -2.266000000    -1.888000000     4.059000000
C    -2.340000000    -0.804000000     5.103000000
H    -1.972000000    -1.161000000     6.067000000
H    -3.361000000    -0.484000000     5.320000000
C    -1.515000000     0.409000000     4.644000000
C    -2.129000000     1.358000000     3.859000000
C    -1.395000000     2.424000000     3.357000000
H    -1.780000000     3.214000000     2.717000000
C    -0.073000000     2.569000000     3.786000000
O     0.631000000     3.606000000     3.191000000
C     1.457000000     3.329000000     2.083000000
H     1.071000000     2.432000000     1.576000000
C     1.302000000     4.362000000     0.993000000
C     2.400000000     4.863000000     0.318000000
H     3.429000000     4.580000000     0.527000000
C     0.035000000     4.833000000     0.597000000
H    -0.828000000     4.380000000     1.079000000
C    -0.134000000     5.780000000    -0.426000000
O    -1.432000000     6.011000000    -0.917000000
C     0.967000000     6.106000000    -1.173000000
H     0.761000000     6.583000000    -2.128000000
C     2.255000000     5.694000000    -0.822000000
O     3.334000000     6.032000000    -1.653000000
C     4.246000000     5.019000000    -1.869000000
C     3.984000000     4.031000000    -2.849000000
H     3.029000000     4.016000000    -3.369000000
C     5.521000000     5.148000000    -1.285000000
H     5.708000000     5.951000000    -0.577000000
C     6.491000000     4.212000000    -1.566000000
H     7.500000000     4.178000000    -1.161000000
C     6.264000000     3.199000000    -2.521000000
H     7.054000000     2.457000000    -2.612000000
C     4.957000000     3.032000000    -3.158000000
O     4.726000000     2.035000000    -4.049000000
C     4.441000000     0.760000000    -3.590000000
C     4.453000000    -0.220000000    -4.568000000
H     4.488000000     0.130000000    -5.597000000
C     4.388000000    -1.570000000    -4.205000000
O     4.443000000    -2.533000000    -5.142000000
C     3.522000000    -3.568000000    -5.200000000
C     2.164000000    -3.397000000    -4.948000000
H     1.674000000    -2.428000000    -4.901000000
C     3.999000000    -4.883000000    -5.375000000
H     5.039000000    -4.933000000    -5.687000000
C     3.174000000    -6.037000000    -5.259000000
H     3.558000000    -7.026000000    -5.497000000
C     1.815000000    -5.803000000    -5.156000000
H     1.204000000    -6.701000000    -5.121000000
C     1.303000000    -4.510000000    -4.980000000
O    -0.055000000    -4.386000000    -4.989000000
C    -0.853000000    -3.987000000    -3.921000000
C    -2.074000000    -3.411000000    -4.143000000
H    -2.361000000    -3.153000000    -5.160000000
C    -2.885000000    -2.975000000    -3.116000000
O    -3.981000000    -2.165000000    -3.534000000
C    -5.167000000    -2.271000000    -2.896000000
C    -5.673000000    -1.155000000    -2.272000000
H    -5.269000000    -0.148000000    -2.335000000
C    -5.682000000    -3.560000000    -2.774000000
H    -5.301000000    -4.471000000    -3.227000000
C    -6.849000000    -3.643000000    -1.961000000
H    -7.275000000    -4.614000000    -1.722000000
C    -7.422000000    -2.496000000    -1.426000000
H    -8.291000000    -2.671000000    -0.797000000
C    -6.874000000    -1.237000000    -1.611000000
O    -7.389000000    -0.183000000    -0.785000000
C    -6.591000000     0.653000000    -0.164000000
C    -6.550000000     2.080000000    -0.440000000
H    -7.174000000     2.436000000    -1.256000000
C    -5.719000000     2.889000000     0.297000000
O    -5.747000000     4.219000000     0.073000000
C    -4.758000000     5.128000000     0.227000000
C    -5.082000000     6.170000000     1.071000000
H    -6.102000000     6.327000000     1.411000000
C    -4.130000000     7.144000000     1.313000000
H    -4.414000000     7.969000000     1.962000000
C    -2.858000000     7.108000000     0.684000000
H    -2.184000000     7.959000000     0.738000000
C    -2.571000000     6.008000000    -0.135000000
C    -3.534000000     5.089000000    -0.368000000
H    -3.288000000     4.270000000    -1.039000000
C    -2.065000000     1.494000000    -1.623000000
H    -2.930000000     1.830000000    -2.190000000
C    -2.179000000     0.458000000    -0.718000000
H    -3.116000000    -0.047000000    -0.499000000
C    -1.039000000    -0.043000000    -0.153000000
H    -1.179000000    -0.961000000     0.357000000
C     0.197000000     0.563000000    -0.398000000
H     1.109000000     0.165000000     0.040000000
C     0.261000000     1.710000000    -1.153000000
H     1.246000000     2.149000000    -1.290000000
C    -0.853000000     2.129000000    -1.854000000
C    -0.741000000     3.235000000    -2.885000000
O     0.362000000     3.689000000    -3.246000000
O    -1.796000000     3.750000000    -3.377000000
O    -6.669000000     3.742000000    -5.831000000
H    -6.552000000     2.982000000    -5.261000000
H    -5.851000000     4.232000000    -5.749000000
O     2.725000000     5.976000000    -7.151000000
H     2.165000000     5.249000000    -6.880000000
H     3.180000000     6.239000000    -6.352000000
O    -0.659000000     6.858000000    -7.398000000
H    -0.807000000     6.246000000    -6.677000000
H    -0.592000000     6.303000000    -8.175000000
O    -4.376000000     4.243000000    -3.433000000
H    -3.430000000     4.305000000    -3.303000000
H    -4.615000000     3.398000000    -3.051000000
O    -0.761000000     3.147000000    -7.812000000
H    -0.039000000     2.521000000    -7.857000000
H    -1.382000000     2.752000000    -7.200000000
O    -0.309000000    -0.639000000    -3.294000000
H    -0.908000000    -0.341000000    -2.609000000
H     0.396000000    -1.081000000    -2.821000000
O     0.836000000     0.599000000    -7.675000000
H     1.789000000     0.554000000    -7.753000000
H     0.654000000     0.298000000    -6.785000000
O    -0.946000000     6.434000000    -4.133000000
H    -1.889000000     6.518000000    -3.996000000
H    -0.752000000     5.522000000    -3.914000000
O    -3.286000000     7.824000000    -3.285000000
H    -3.295000000     7.912000000    -2.332000000
H    -3.435000000     8.712000000    -3.609000000
O     0.087000000     8.980000000    -3.378000000
H    -0.632000000     8.386000000    -3.164000000
H     0.065000000     9.048000000    -4.333000000
O    -6.304000000     1.630000000    -4.135000000
H    -7.222000000     1.591000000    -3.868000000
H    -6.167000000     0.829000000    -4.642000000
O    -5.395000000    -0.833000000    -5.770000000
H    -4.569000000    -0.914000000    -5.292000000
H    -5.191000000    -1.137000000    -6.654000000
O    -5.680000000     6.566000000    -4.374000000
H    -5.093000000     7.255000000    -4.063000000
H    -5.421000000     5.789000000    -3.878000000
O    -2.717000000     2.646000000    -5.611000000
H    -2.490000000     3.047000000    -4.772000000
H    -2.869000000     1.725000000    -5.402000000
O     4.003000000     3.054000000    -6.846000000
H     4.534000000     3.844000000    -6.945000000
H     3.431000000     3.241000000    -6.102000000
O     4.743000000     6.563000000    -4.558000000
H     4.133000000     6.625000000    -3.823000000
H     5.604000000     6.481000000    -4.148000000
O    -4.034000000     3.493000000    -8.056000000
H    -3.590000000     3.311000000    -7.228000000
H    -3.706000000     4.353000000    -8.320000000
O     1.510000000     3.845000000    -5.636000000
H     1.187000000     3.822000000    -4.736000000
H     0.891000000     3.306000000    -6.128000000
O    -1.832000000    -0.360000000    -5.708000000
H    -1.267000000    -0.510000000    -4.950000000
H    -1.459000000    -0.909000000    -6.398000000
