215
-1438.34815
C     3.100000000    -1.651000000    -2.769000000
H     2.406000000    -2.405000000    -2.405000000
C     3.920000000    -0.997000000    -1.846000000
C     4.631000000     0.125000000    -2.244000000
H     5.033000000     0.753000000    -1.453000000
C     3.814000000    -1.348000000    -0.398000000
O     3.911000000    -2.706000000    -0.120000000
H     2.838000000    -0.995000000    -0.034000000
O     4.873000000    -0.777000000     0.376000000
C     4.438000000    -0.238000000     1.526000000
C     4.230000000     1.089000000     1.426000000
H     4.472000000     1.670000000     0.540000000
C     3.545000000     1.758000000     2.487000000
O     3.101000000     3.074000000     2.217000000
C     3.130000000     1.109000000     3.592000000
C     2.246000000     1.878000000     4.628000000
H     2.340000000     1.484000000     5.642000000
C     0.813000000     1.793000000     4.309000000
C     0.008000000     0.764000000     4.796000000
H     0.466000000     0.017000000     5.440000000
H     2.632000000     2.898000000     4.679000000
C     3.489000000    -0.212000000     3.723000000
H     3.227000000    -0.803000000     4.597000000
C     4.108000000    -0.913000000     2.646000000
C     4.200000000    -2.474000000     2.669000000
H     4.223000000    -2.846000000     3.696000000
H     5.031000000    -2.798000000     2.039000000
C     2.971000000    -3.145000000     2.064000000
C     1.927000000    -3.595000000     2.834000000
H     1.910000000    -3.437000000     3.909000000
C     2.952000000    -3.326000000     0.680000000
C     1.926000000    -3.964000000     0.115000000
H     1.900000000    -4.179000000    -0.951000000
C     0.887000000    -4.487000000     0.864000000
O    -0.225000000    -5.046000000     0.307000000
C    -1.412000000    -4.141000000     0.051000000
C    -1.933000000    -4.336000000    -1.344000000
C    -3.069000000    -3.639000000    -1.677000000
H    -3.671000000    -3.138000000    -0.924000000
C    -1.284000000    -4.989000000    -2.372000000
H    -0.472000000    -5.695000000    -2.218000000
O    -2.411000000    -4.468000000     1.089000000
H    -1.108000000    -3.084000000     0.067000000
C     0.818000000    -4.216000000     2.228000000
C    -0.344000000    -4.707000000     3.092000000
H     0.016000000    -4.775000000     4.121000000
H    -0.605000000    -5.687000000     2.686000000
C    -1.432000000    -3.635000000     3.118000000
C    -1.484000000    -2.709000000     4.132000000
H    -0.876000000    -2.797000000     5.029000000
C    -2.413000000    -3.637000000     2.163000000
C    -3.419000000    -2.633000000     2.162000000
H    -4.046000000    -2.491000000     1.285000000
C    -3.310000000    -1.533000000     3.084000000
O    -4.104000000    -0.438000000     2.811000000
C    -3.615000000     0.846000000     2.287000000
C    -4.518000000     1.528000000     1.281000000
C    -5.273000000     0.807000000     0.362000000
H    -5.249000000    -0.279000000     0.383000000
C    -4.508000000     2.897000000     1.111000000
H    -3.714000000     3.451000000     1.606000000
O    -3.311000000     1.723000000     3.460000000
H    -2.646000000     0.691000000     1.791000000
C    -2.357000000    -1.566000000     4.078000000
C    -2.262000000    -0.417000000     5.101000000
H    -1.665000000    -0.771000000     5.944000000
H    -3.249000000    -0.149000000     5.484000000
C    -1.405000000     0.769000000     4.596000000
C    -1.992000000     1.800000000     3.811000000
C    -1.138000000     2.730000000     3.192000000
H    -1.480000000     3.370000000     2.383000000
C     0.262000000     2.695000000     3.365000000
O     0.996000000     3.572000000     2.720000000
C     1.780000000     3.192000000     1.708000000
H     1.459000000     2.164000000     1.486000000
C     1.787000000     4.103000000     0.516000000
C     2.968000000     4.457000000    -0.204000000
H     3.903000000     4.127000000     0.240000000
C     0.523000000     4.606000000     0.088000000
H    -0.407000000     4.319000000     0.573000000
C     0.465000000     5.456000000    -0.997000000
O    -0.737000000     6.080000000    -1.334000000
C     1.586000000     5.751000000    -1.699000000
H     1.536000000     6.335000000    -2.614000000
C     2.829000000     5.160000000    -1.442000000
O     3.979000000     5.560000000    -2.080000000
C     5.056000000     4.688000000    -2.347000000
C     4.849000000     3.566000000    -3.030000000
H     3.819000000     3.348000000    -3.300000000
C     6.332000000     5.093000000    -1.967000000
H     6.504000000     5.968000000    -1.346000000
C     7.353000000     4.141000000    -2.213000000
H     8.297000000     4.344000000    -1.714000000
C     7.081000000     2.963000000    -2.899000000
H     7.841000000     2.222000000    -3.133000000
C     5.805000000     2.630000000    -3.363000000
O     5.559000000     1.459000000    -4.144000000
C     4.705000000     0.450000000    -3.652000000
C     4.080000000    -0.380000000    -4.614000000
H     4.256000000    -0.118000000    -5.655000000
C     3.239000000    -1.443000000    -4.180000000
O     2.517000000    -2.181000000    -5.088000000
C     2.177000000    -3.503000000    -4.842000000
C     0.823000000    -3.885000000    -4.885000000
H     0.071000000    -3.160000000    -5.183000000
C     3.179000000    -4.446000000    -4.488000000
H     4.224000000    -4.151000000    -4.521000000
C     2.791000000    -5.760000000    -4.211000000
H     3.587000000    -6.500000000    -4.220000000
C     1.419000000    -6.139000000    -4.260000000
H     1.080000000    -7.169000000    -4.332000000
C     0.480000000    -5.193000000    -4.577000000
O    -0.885000000    -5.459000000    -4.613000000
C    -1.691000000    -4.865000000    -3.688000000
C    -2.829000000    -4.151000000    -4.058000000
H    -3.139000000    -4.001000000    -5.089000000
C    -3.530000000    -3.572000000    -2.973000000
O    -4.724000000    -2.939000000    -3.325000000
C    -5.674000000    -2.473000000    -2.440000000
C    -5.966000000    -1.168000000    -2.379000000
H    -5.523000000    -0.429000000    -3.043000000
C    -6.370000000    -3.435000000    -1.696000000
H    -6.223000000    -4.512000000    -1.698000000
C    -7.354000000    -2.948000000    -0.803000000
H    -7.834000000    -3.577000000    -0.058000000
C    -7.733000000    -1.515000000    -0.765000000
H    -8.356000000    -1.033000000    -0.016000000
C    -6.995000000    -0.622000000    -1.613000000
O    -7.004000000     0.759000000    -1.416000000
C    -6.103000000     1.452000000    -0.564000000
C    -6.113000000     2.810000000    -0.756000000
H    -6.655000000     3.242000000    -1.594000000
C    -5.238000000     3.505000000     0.090000000
O    -5.122000000     4.937000000    -0.096000000
C    -4.008000000     5.633000000     0.103000000
C    -4.014000000     6.551000000     1.134000000
H    -4.911000000     6.812000000     1.689000000
C    -2.842000000     7.171000000     1.440000000
H    -2.763000000     7.867000000     2.271000000
C    -1.737000000     7.064000000     0.620000000
H    -0.811000000     7.597000000     0.824000000
C    -1.772000000     6.139000000    -0.451000000
C    -2.865000000     5.369000000    -0.693000000
H    -2.820000000     4.628000000    -1.488000000
C    -1.792000000     0.108000000    -1.125000000
H    -2.689000000     0.061000000    -1.738000000
C    -1.805000000    -0.674000000     0.013000000
H    -2.596000000    -1.381000000     0.251000000
C    -0.599000000    -0.664000000     0.773000000
H    -0.524000000    -1.265000000     1.723000000
C     0.534000000     0.047000000     0.400000000
H     1.384000000    -0.027000000     1.073000000
C     0.501000000     0.857000000    -0.722000000
H     1.393000000     1.397000000    -1.029000000
C    -0.655000000     0.829000000    -1.560000000
C    -0.672000000     1.298000000    -3.004000000
O     0.281000000     1.864000000    -3.567000000
O    -1.617000000     0.972000000    -3.758000000
O    -1.090000000    -0.201000000    -9.505000000
H    -0.614000000     0.039000000   -10.300000000
H    -1.867000000    -0.662000000    -9.821000000
O    -6.152000000     2.025000000    -4.116000000
H    -6.326000000     2.931000000    -3.858000000
H    -5.241000000     2.030000000    -4.410000000
O    -1.037000000     6.754000000    -6.002000000
H    -1.252000000     5.860000000    -5.738000000
H    -1.518000000     6.885000000    -6.819000000
O    -3.692000000     2.161000000    -4.901000000
H    -3.020000000     1.762000000    -4.348000000
H    -3.702000000     1.623000000    -5.692000000
O    -0.988000000     4.347000000    -9.134000000
H    -0.972000000     4.096000000   -10.058000000
H    -0.779000000     3.540000000    -8.664000000
O     0.839000000     0.594000000    -5.846000000
H     0.483000000     1.106000000    -5.120000000
H     1.148000000    -0.215000000    -5.439000000
O    -7.168000000     5.115000000    -5.450000000
H    -6.444000000     4.904000000    -4.861000000
H    -7.006000000     6.021000000    -5.713000000
O    -0.702000000     2.110000000    -7.669000000
H     0.063000000     1.894000000    -7.137000000
H    -0.843000000     1.335000000    -8.212000000
O    -1.946000000     4.492000000    -4.610000000
H    -2.139000000     3.830000000    -5.274000000
H    -1.626000000     3.993000000    -3.859000000
O    -2.661000000    -2.392000000    -7.418000000
H    -2.559000000    -1.582000000    -6.917000000
H    -2.927000000    -2.102000000    -8.290000000
O    -2.502000000     7.315000000    -3.181000000
H    -1.703000000     6.993000000    -2.762000000
H    -2.529000000     6.864000000    -4.024000000
O     0.686000000     8.356000000    -4.117000000
H     0.025000000     7.874000000    -4.614000000
H     0.612000000     9.257000000    -4.431000000
O    -6.978000000    -0.328000000    -5.278000000
H    -7.891000000    -0.345000000    -4.990000000
H    -6.599000000     0.427000000    -4.829000000
O     2.124000000     0.184000000    -8.320000000
H     1.545000000     0.639000000    -8.932000000
H     1.770000000     0.391000000    -7.456000000
O    -4.859000000     4.679000000    -4.051000000
H    -4.343000000     5.256000000    -3.489000000
H    -4.211000000     4.228000000    -4.592000000
O    -2.271000000     0.053000000    -6.241000000
H    -2.131000000     0.219000000    -5.308000000
H    -1.390000000     0.032000000    -6.615000000
O     2.503000000     3.032000000    -7.169000000
H     2.578000000     3.973000000    -7.009000000
H     2.079000000     2.688000000    -6.383000000
O     1.188000000     3.946000000    -4.690000000
H     0.763000000     3.275000000    -4.155000000
H     0.476000000     4.333000000    -5.199000000
O    -4.751000000     0.789000000    -7.420000000
H    -5.333000000     0.068000000    -7.178000000
H    -3.879000000     0.488000000    -7.166000000
