215
-1437.55946
C     3.880000000    -2.334000000    -2.571000000
H     3.420000000    -3.204000000    -2.111000000
C     4.328000000    -1.310000000    -1.674000000
C     4.712000000    -0.125000000    -2.141000000
H     4.935000000     0.716000000    -1.489000000
C     4.197000000    -1.482000000    -0.149000000
O     4.272000000    -2.898000000     0.238000000
H     3.148000000    -1.206000000     0.036000000
O     5.124000000    -0.686000000     0.719000000
C     4.539000000     0.011000000     1.714000000
C     4.255000000     1.347000000     1.458000000
H     4.626000000     1.778000000     0.532000000
C     3.507000000     2.121000000     2.300000000
O     3.109000000     3.390000000     1.893000000
C     2.916000000     1.513000000     3.444000000
C     2.144000000     2.297000000     4.509000000
H     2.254000000     1.891000000     5.517000000
C     0.662000000     2.248000000     4.110000000
C    -0.266000000     1.382000000     4.812000000
H     0.058000000     0.792000000     5.665000000
H     2.495000000     3.326000000     4.614000000
C     3.097000000     0.119000000     3.640000000
H     2.638000000    -0.412000000     4.470000000
C     3.938000000    -0.649000000     2.815000000
C     4.173000000    -2.162000000     3.086000000
H     4.111000000    -2.353000000     4.159000000
H     5.198000000    -2.449000000     2.840000000
C     3.152000000    -3.033000000     2.382000000
C     1.959000000    -3.265000000     3.093000000
H     1.962000000    -3.006000000     4.149000000
C     3.215000000    -3.387000000     1.037000000
C     2.117000000    -4.086000000     0.438000000
H     2.239000000    -4.325000000    -0.616000000
C     0.979000000    -4.382000000     1.203000000
O    -0.036000000    -4.959000000     0.508000000
C    -1.131000000    -4.057000000     0.285000000
C    -1.838000000    -4.211000000    -1.058000000
C    -3.225000000    -4.154000000    -1.200000000
H    -3.868000000    -3.987000000    -0.340000000
C    -1.026000000    -4.335000000    -2.228000000
H     0.058000000    -4.339000000    -2.140000000
O    -2.131000000    -4.324000000     1.323000000
H    -0.814000000    -3.007000000     0.368000000
C     0.901000000    -3.998000000     2.569000000
C    -0.323000000    -4.251000000     3.528000000
H     0.011000000    -4.124000000     4.560000000
H    -0.688000000    -5.262000000     3.339000000
C    -1.386000000    -3.180000000     3.380000000
C    -1.493000000    -2.098000000     4.276000000
H    -0.769000000    -1.914000000     5.065000000
C    -2.349000000    -3.343000000     2.361000000
C    -3.268000000    -2.377000000     2.032000000
H    -3.869000000    -2.453000000     1.129000000
C    -3.329000000    -1.284000000     2.979000000
O    -4.140000000    -0.227000000     2.619000000
C    -3.592000000     0.959000000     1.990000000
C    -4.502000000     1.430000000     0.794000000
C    -5.429000000     0.577000000     0.208000000
H    -5.624000000    -0.401000000     0.640000000
C    -4.222000000     2.666000000     0.181000000
H    -3.431000000     3.328000000     0.525000000
O    -3.350000000     2.042000000     2.869000000
H    -2.533000000     0.770000000     1.757000000
C    -2.487000000    -1.131000000     4.043000000
C    -2.482000000     0.117000000     4.891000000
H    -2.106000000    -0.066000000     5.900000000
H    -3.519000000     0.458000000     4.933000000
C    -1.606000000     1.234000000     4.352000000
C    -2.093000000     2.148000000     3.358000000
C    -1.195000000     3.062000000     2.761000000
H    -1.593000000     3.686000000     1.966000000
C     0.165000000     3.078000000     3.129000000
O     1.000000000     4.000000000     2.506000000
C     1.751000000     3.455000000     1.466000000
H     1.394000000     2.444000000     1.219000000
C     1.662000000     4.447000000     0.313000000
C     2.728000000     4.435000000    -0.629000000
H     3.557000000     3.749000000    -0.478000000
C     0.595000000     5.341000000     0.074000000
H    -0.215000000     5.386000000     0.797000000
C     0.648000000     6.212000000    -1.024000000
O    -0.550000000     6.956000000    -1.282000000
C     1.759000000     6.172000000    -1.889000000
H     1.763000000     6.852000000    -2.737000000
C     2.786000000     5.218000000    -1.701000000
O     3.857000000     5.173000000    -2.603000000
C     4.917000000     4.402000000    -2.572000000
C     4.783000000     3.315000000    -3.373000000
H     3.865000000     3.224000000    -3.948000000
C     6.032000000     4.662000000    -1.741000000
H     6.055000000     5.532000000    -1.090000000
C     7.056000000     3.711000000    -1.789000000
H     7.949000000     3.837000000    -1.182000000
C     6.956000000     2.615000000    -2.636000000
H     7.817000000     1.969000000    -2.787000000
C     5.801000000     2.349000000    -3.351000000
O     5.626000000     1.210000000    -4.076000000
C     5.075000000     0.037000000    -3.515000000
C     4.738000000    -0.979000000    -4.446000000
H     4.895000000    -0.848000000    -5.514000000
C     4.051000000    -2.117000000    -3.945000000
O     3.679000000    -3.004000000    -4.865000000
C     2.767000000    -3.971000000    -4.617000000
C     1.405000000    -3.717000000    -4.717000000
H     0.981000000    -2.721000000    -4.813000000
C     3.297000000    -5.236000000    -4.382000000
H     4.365000000    -5.285000000    -4.186000000
C     2.403000000    -6.305000000    -4.213000000
H     2.688000000    -7.348000000    -4.100000000
C     0.985000000    -6.051000000    -4.384000000
H     0.251000000    -6.841000000    -4.247000000
C     0.485000000    -4.769000000    -4.601000000
O    -0.879000000    -4.640000000    -4.641000000
C    -1.626000000    -4.484000000    -3.440000000
C    -3.014000000    -4.504000000    -3.528000000
H    -3.494000000    -4.638000000    -4.494000000
C    -3.814000000    -4.225000000    -2.471000000
O    -5.224000000    -4.291000000    -2.604000000
C    -6.059000000    -3.401000000    -1.856000000
C    -5.969000000    -2.071000000    -2.021000000
H    -5.213000000    -1.653000000    -2.682000000
C    -6.896000000    -3.971000000    -0.935000000
H    -6.822000000    -5.055000000    -0.907000000
C    -7.636000000    -3.184000000    -0.112000000
H    -8.174000000    -3.674000000     0.696000000
C    -7.741000000    -1.787000000    -0.352000000
H    -8.404000000    -1.161000000     0.239000000
C    -6.891000000    -1.260000000    -1.281000000
O    -6.858000000     0.068000000    -1.639000000
C    -6.005000000     0.958000000    -0.984000000
C    -5.797000000     2.142000000    -1.551000000
H    -6.292000000     2.492000000    -2.453000000
C    -4.909000000     3.050000000    -0.958000000
O    -4.726000000     4.348000000    -1.383000000
C    -3.890000000     5.331000000    -0.854000000
C    -4.359000000     6.169000000     0.164000000
H    -5.383000000     5.940000000     0.447000000
C    -3.629000000     7.253000000     0.726000000
H    -4.020000000     7.824000000     1.565000000
C    -2.332000000     7.405000000     0.218000000
H    -1.758000000     8.243000000     0.605000000
C    -1.815000000     6.625000000    -0.783000000
C    -2.587000000     5.536000000    -1.323000000
H    -2.161000000     4.857000000    -2.057000000
C    -1.150000000     0.605000000    -1.152000000
H    -2.217000000     0.620000000    -1.361000000
C    -0.571000000     0.098000000    -0.032000000
H    -1.154000000    -0.367000000     0.759000000
C     0.793000000     0.206000000     0.187000000
H     1.246000000    -0.291000000     1.062000000
C     1.565000000     0.860000000    -0.787000000
H     2.632000000     0.785000000    -0.593000000
C     0.943000000     1.382000000    -1.863000000
H     1.591000000     1.782000000    -2.640000000
C    -0.387000000     1.256000000    -2.125000000
C    -1.143000000     1.961000000    -3.262000000
O    -0.584000000     2.786000000    -3.986000000
O    -2.236000000     1.512000000    -3.578000000
O    -1.666000000     4.256000000   -10.255000000
H    -1.857000000     5.139000000    -9.938000000
H    -1.145000000     3.859000000    -9.557000000
O    -7.707000000     1.294000000    -5.100000000
H    -8.073000000     1.745000000    -5.861000000
H    -6.955000000     0.813000000    -5.445000000
O    -2.439000000     7.019000000    -5.065000000
H    -1.653000000     7.361000000    -4.640000000
H    -2.233000000     7.038000000    -6.000000000
O    -4.051000000     1.698000000    -5.520000000
H    -3.503000000     1.627000000    -4.738000000
H    -4.387000000     0.813000000    -5.658000000
O     0.863000000     0.062000000    -7.813000000
H     0.680000000     0.341000000    -8.710000000
H     0.286000000     0.600000000    -7.271000000
O    -7.147000000     4.978000000    -3.979000000
H    -6.543000000     4.573000000    -4.600000000
H    -6.818000000     4.716000000    -3.119000000
O    -1.015000000     1.688000000    -6.265000000
H    -0.861000000     2.083000000    -5.407000000
H    -1.659000000     0.998000000    -6.099000000
O    -3.150000000     4.519000000    -7.329000000
H    -2.915000000     5.325000000    -7.787000000
H    -2.360000000     4.279000000    -6.845000000
O    -1.090000000    -2.691000000    -7.398000000
H    -0.914000000    -2.175000000    -6.611000000
H    -1.324000000    -2.043000000    -8.062000000
O    -4.819000000     7.959000000    -2.847000000
H    -4.066000000     7.599000000    -3.315000000
H    -5.145000000     7.230000000    -2.320000000
O     3.548000000    -0.262000000    -7.803000000
H     3.707000000    -1.185000000    -7.608000000
H     2.597000000    -0.169000000    -7.764000000
O     2.171000000     5.484000000    -5.332000000
H     1.409000000     4.947000000    -5.552000000
H     1.822000000     6.372000000    -5.253000000
O    -5.043000000     4.121000000    -5.472000000
H    -4.427000000     4.735000000    -5.872000000
H    -4.602000000     3.273000000    -5.521000000
O    -2.066000000    -0.807000000    -5.375000000
H    -2.169000000    -0.269000000    -4.590000000
H    -2.958000000    -0.934000000    -5.697000000
O    -0.114000000     3.606000000    -8.045000000
H     0.091000000     4.137000000    -7.276000000
H    -0.427000000     2.775000000    -7.686000000
O     0.785000000     7.798000000    -5.434000000
H     1.260000000     8.533000000    -5.045000000
H     0.263000000     8.193000000    -6.132000000
O    -6.501000000     4.555000000    -7.717000000
H    -6.543000000     3.863000000    -8.378000000
H    -5.879000000     4.228000000    -7.068000000
O    -0.577000000     4.767000000    -5.468000000
H    -0.502000000     4.040000000    -4.849000000
H    -1.291000000     5.302000000    -5.124000000
O    -5.023000000    -1.013000000    -5.839000000
H    -5.655000000    -1.368000000    -5.214000000
H    -5.064000000    -1.611000000    -6.586000000
