215
-1450.27456
C     3.431000000    -3.557000000    -2.889000000
H     3.128000000    -4.493000000    -2.426000000
C     3.826000000    -2.469000000    -2.058000000
C     4.360000000    -1.358000000    -2.616000000
H     4.666000000    -0.538000000    -1.970000000
C     3.723000000    -2.591000000    -0.556000000
O     3.706000000    -3.940000000    -0.077000000
H     2.787000000    -2.040000000    -0.382000000
O     4.785000000    -1.843000000     0.093000000
C     4.425000000    -0.974000000     1.152000000
C     4.173000000     0.298000000     0.828000000
H     4.389000000     0.656000000    -0.176000000
C     3.672000000     1.192000000     1.722000000
O     3.577000000     2.478000000     1.317000000
C     3.474000000     0.786000000     3.025000000
C     3.046000000     1.681000000     4.172000000
H     3.230000000     1.313000000     5.184000000
C     1.589000000     1.919000000     4.090000000
C     0.691000000     1.230000000     4.933000000
H     1.092000000     0.411000000     5.525000000
H     3.544000000     2.651000000     4.107000000
C     3.562000000    -0.611000000     3.326000000
H     3.265000000    -0.971000000     4.307000000
C     3.970000000    -1.493000000     2.373000000
C     4.189000000    -2.949000000     2.653000000
H     4.236000000    -2.974000000     3.743000000
H     5.148000000    -3.251000000     2.227000000
C     2.900000000    -3.668000000     2.247000000
C     1.807000000    -3.732000000     3.098000000
H     1.946000000    -3.281000000     4.077000000
C     2.773000000    -4.153000000     0.922000000
C     1.516000000    -4.652000000     0.497000000
H     1.321000000    -4.999000000    -0.515000000
C     0.464000000    -4.751000000     1.396000000
O    -0.788000000    -4.994000000     0.856000000
C    -1.478000000    -3.762000000     0.634000000
C    -1.982000000    -3.462000000    -0.778000000
C    -2.823000000    -2.312000000    -1.037000000
H    -3.124000000    -1.668000000    -0.215000000
C    -1.587000000    -4.237000000    -1.848000000
H    -0.802000000    -4.963000000    -1.651000000
O    -2.630000000    -3.652000000     1.583000000
H    -0.803000000    -2.900000000     0.746000000
C     0.552000000    -4.232000000     2.717000000
C    -0.692000000    -4.219000000     3.643000000
H    -0.244000000    -4.353000000     4.629000000
H    -1.334000000    -5.098000000     3.558000000
C    -1.486000000    -2.940000000     3.599000000
C    -1.257000000    -1.947000000     4.571000000
H    -0.502000000    -2.079000000     5.342000000
C    -2.464000000    -2.732000000     2.615000000
C    -3.223000000    -1.532000000     2.547000000
H    -3.928000000    -1.354000000     1.740000000
C    -3.027000000    -0.642000000     3.659000000
O    -3.730000000     0.565000000     3.623000000
C    -3.117000000     1.662000000     2.850000000
C    -4.148000000     2.411000000     2.010000000
C    -5.168000000     1.766000000     1.306000000
H    -5.223000000     0.682000000     1.362000000
C    -3.973000000     3.778000000     1.769000000
H    -3.126000000     4.316000000     2.187000000
O    -2.467000000     2.554000000     3.710000000
H    -2.396000000     1.277000000     2.113000000
C    -1.964000000    -0.767000000     4.560000000
C    -1.568000000     0.319000000     5.487000000
H    -1.143000000     0.003000000     6.442000000
H    -2.508000000     0.835000000     5.695000000
C    -0.647000000     1.355000000     4.807000000
C    -1.148000000     2.332000000     4.002000000
C    -0.279000000     3.148000000     3.220000000
H    -0.731000000     3.981000000     2.687000000
C     1.140000000     2.939000000     3.322000000
O     1.910000000     3.574000000     2.415000000
C     2.200000000     2.906000000     1.159000000
H     1.516000000     2.066000000     0.969000000
C     1.991000000     3.766000000    -0.064000000
C     2.810000000     3.709000000    -1.150000000
H     3.661000000     3.040000000    -1.053000000
C     0.944000000     4.689000000    -0.116000000
H     0.273000000     4.764000000     0.736000000
C     0.670000000     5.370000000    -1.276000000
O    -0.447000000     6.215000000    -1.443000000
C     1.500000000     5.280000000    -2.358000000
H     1.366000000     5.821000000    -3.291000000
C     2.643000000     4.492000000    -2.313000000
O     3.282000000     4.260000000    -3.529000000
C     4.345000000     3.409000000    -3.672000000
C     4.039000000     2.136000000    -4.161000000
H     3.078000000     1.900000000    -4.612000000
C     5.460000000     3.616000000    -2.973000000
H     5.563000000     4.610000000    -2.546000000
C     6.413000000     2.633000000    -2.850000000
H     7.377000000     2.864000000    -2.404000000
C     6.238000000     1.331000000    -3.376000000
H     6.970000000     0.548000000    -3.197000000
C     5.008000000     1.120000000    -4.091000000
O     4.744000000    -0.148000000    -4.655000000
C     4.424000000    -1.287000000    -3.966000000
C     3.972000000    -2.251000000    -4.857000000
H     3.833000000    -2.059000000    -5.918000000
C     3.456000000    -3.414000000    -4.246000000
O     3.029000000    -4.461000000    -5.009000000
C     1.926000000    -5.268000000    -4.801000000
C     0.679000000    -4.758000000    -4.333000000
H     0.594000000    -3.722000000    -4.016000000
C     1.971000000    -6.541000000    -5.330000000
H     2.944000000    -6.809000000    -5.733000000
C     0.775000000    -7.315000000    -5.396000000
H     0.780000000    -8.326000000    -5.797000000
C    -0.427000000    -6.809000000    -4.891000000
H    -1.356000000    -7.348000000    -5.058000000
C    -0.479000000    -5.504000000    -4.398000000
O    -1.699000000    -4.942000000    -4.061000000
C    -2.057000000    -4.021000000    -3.130000000
C    -2.900000000    -2.965000000    -3.367000000
H    -3.435000000    -2.850000000    -4.306000000
C    -3.236000000    -2.068000000    -2.336000000
O    -4.079000000    -1.054000000    -2.663000000
C    -5.229000000    -0.841000000    -2.067000000
C    -5.538000000     0.415000000    -1.464000000
H    -4.876000000     1.262000000    -1.629000000
C    -6.222000000    -1.787000000    -2.041000000
H    -6.020000000    -2.784000000    -2.425000000
C    -7.495000000    -1.519000000    -1.500000000
H    -8.408000000    -2.109000000    -1.488000000
C    -7.677000000    -0.345000000    -0.854000000
H    -8.695000000    -0.081000000    -0.577000000
C    -6.722000000     0.621000000    -0.761000000
O    -7.092000000     1.899000000    -0.182000000
C    -6.098000000     2.482000000     0.557000000
C    -5.967000000     3.900000000     0.483000000
H    -6.691000000     4.502000000    -0.060000000
C    -4.835000000     4.541000000     0.972000000
O    -4.674000000     5.880000000     0.836000000
C    -3.466000000     6.539000000     0.547000000
C    -3.345000000     7.840000000     1.075000000
H    -4.055000000     8.278000000     1.772000000
C    -2.115000000     8.495000000     0.880000000
H    -1.999000000     9.511000000     1.249000000
C    -1.111000000     7.855000000     0.092000000
H    -0.174000000     8.370000000    -0.103000000
C    -1.313000000     6.655000000    -0.528000000
C    -2.476000000     5.926000000    -0.215000000
H    -2.531000000     4.880000000    -0.509000000
C    -1.081000000     1.277000000    -0.659000000
H    -1.469000000     2.257000000    -0.395000000
C    -0.458000000     0.449000000     0.299000000
H    -0.452000000     0.808000000     1.325000000
C     0.181000000    -0.686000000    -0.057000000
H     0.649000000    -1.375000000     0.642000000
C     0.134000000    -1.052000000    -1.385000000
H     0.556000000    -2.021000000    -1.640000000
C    -0.468000000    -0.317000000    -2.387000000
H    -0.584000000    -0.710000000    -3.394000000
C    -1.107000000     0.854000000    -2.035000000
C    -1.685000000     1.763000000    -3.066000000
O    -1.452000000     1.612000000    -4.284000000
O    -2.479000000     2.634000000    -2.756000000
O    -2.373000000    -2.794000000    -6.488000000
H    -1.743000000    -3.281000000    -5.957000000
H    -2.125000000    -1.876000000    -6.373000000
O    -4.510000000    -1.719000000    -7.417000000
H    -3.650000000    -2.111000000    -7.269000000
H    -4.715000000    -1.275000000    -6.593000000
O    -8.329000000     0.248000000    -4.601000000
H    -8.139000000     0.962000000    -3.992000000
H    -7.494000000     0.075000000    -5.036000000
O    -2.774000000     6.844000000    -6.152000000
H    -3.396000000     6.149000000    -5.940000000
H    -2.292000000     6.991000000    -5.338000000
O    -1.889000000    -0.452000000    -9.436000000
H    -2.720000000    -0.488000000    -9.909000000
H    -1.875000000     0.421000000    -9.043000000
O    -5.087000000     4.602000000    -5.621000000
H    -5.984000000     4.346000000    -5.408000000
H    -4.811000000     5.144000000    -4.882000000
O    -5.172000000     3.849000000    -2.734000000
H    -4.299000000     3.469000000    -2.836000000
H    -5.010000000     4.761000000    -2.494000000
O     0.814000000     2.199000000    -5.686000000
H     0.107000000     1.759000000    -5.214000000
H     0.992000000     1.630000000    -6.435000000
O    -1.347000000     2.002000000    -7.813000000
H    -0.430000000     2.013000000    -8.087000000
H    -1.485000000     2.856000000    -7.403000000
O    -4.080000000     1.712000000    -4.953000000
H    -4.363000000     2.551000000    -4.589000000
H    -3.136000000     1.689000000    -4.796000000
O    -7.678000000     2.625000000    -3.017000000
H    -6.894000000     3.016000000    -2.631000000
H    -8.301000000     2.572000000    -2.292000000
O    -1.772000000    -0.361000000    -5.932000000
H    -1.844000000     0.407000000    -6.500000000
H    -1.553000000    -0.002000000    -5.072000000
O     1.167000000     7.810000000    -5.067000000
H     1.492000000     6.976000000    -5.407000000
H     0.386000000     7.576000000    -4.565000000
O    -3.875000000     2.565000000    -7.869000000
H    -3.010000000     2.194000000    -8.044000000
H    -3.969000000     2.515000000    -6.918000000
O     1.211000000     1.242000000    -8.192000000
H     1.141000000     1.360000000    -9.139000000
H     2.081000000     0.864000000    -8.061000000
O    -0.569000000     4.550000000    -6.163000000
H    -0.277000000     3.641000000    -6.091000000
H     0.241000000     5.059000000    -6.194000000
O    -2.535000000     4.828000000    -4.242000000
H    -2.410000000     4.098000000    -3.636000000
H    -1.798000000     4.764000000    -4.850000000
O    -5.527000000    -0.505000000    -5.153000000
H    -5.682000000    -0.719000000    -4.233000000
H    -4.974000000     0.276000000    -5.127000000
O    -1.251000000     7.701000000    -3.880000000
H    -1.474000000     8.516000000    -3.431000000
H    -1.396000000     7.019000000    -3.224000000
