215
-1463.13464
C     3.030000000    -2.540000000    -3.167000000
H     2.668000000    -3.447000000    -2.689000000
C     3.757000000    -1.619000000    -2.373000000
C     4.210000000    -0.434000000    -2.950000000
H     4.873000000     0.239000000    -2.412000000
C     3.893000000    -1.786000000    -0.798000000
O     3.893000000    -3.168000000    -0.458000000
H     2.915000000    -1.390000000    -0.487000000
O     4.959000000    -1.148000000    -0.232000000
C     4.672000000    -0.359000000     0.823000000
C     4.360000000     0.952000000     0.674000000
H     4.470000000     1.447000000    -0.288000000
C     3.799000000     1.682000000     1.695000000
O     3.453000000     3.009000000     1.439000000
C     3.676000000     1.166000000     2.978000000
C     3.122000000     2.031000000     4.107000000
H     3.405000000     1.602000000     5.071000000
C     1.617000000     2.078000000     3.988000000
C     0.860000000     1.282000000     4.787000000
H     1.398000000     0.588000000     5.427000000
H     3.487000000     3.059000000     4.160000000
C     4.112000000    -0.152000000     3.182000000
H     3.938000000    -0.659000000     4.127000000
C     4.509000000    -0.902000000     2.083000000
C     4.607000000    -2.367000000     2.281000000
H     4.853000000    -2.618000000     3.315000000
H     5.517000000    -2.712000000     1.785000000
C     3.321000000    -3.195000000     1.940000000
C     2.384000000    -3.558000000     2.927000000
H     2.519000000    -3.273000000     3.967000000
C     3.067000000    -3.569000000     0.599000000
C     1.914000000    -4.235000000     0.268000000
H     1.627000000    -4.480000000    -0.752000000
C     1.009000000    -4.613000000     1.284000000
O    -0.236000000    -4.989000000     0.819000000
C    -1.287000000    -3.936000000     0.651000000
C    -1.976000000    -4.061000000    -0.641000000
C    -3.245000000    -3.440000000    -0.810000000
H    -3.815000000    -2.908000000    -0.053000000
C    -1.380000000    -4.639000000    -1.741000000
H    -0.398000000    -5.103000000    -1.691000000
O    -2.192000000    -4.072000000     1.792000000
H    -0.826000000    -2.944000000     0.768000000
C     1.163000000    -4.171000000     2.613000000
C     0.083000000    -4.287000000     3.675000000
H     0.502000000    -4.423000000     4.674000000
H    -0.446000000    -5.225000000     3.496000000
C    -0.919000000    -3.102000000     3.627000000
C    -0.755000000    -2.062000000     4.550000000
H    -0.009000000    -2.109000000     5.339000000
C    -2.024000000    -3.028000000     2.746000000
C    -2.891000000    -1.979000000     2.784000000
H    -3.741000000    -1.862000000     2.117000000
C    -2.683000000    -0.931000000     3.683000000
O    -3.512000000     0.118000000     3.613000000
C    -3.104000000     1.261000000     2.810000000
C    -4.301000000     1.816000000     1.987000000
C    -5.264000000     1.035000000     1.458000000
H    -5.222000000    -0.051000000     1.465000000
C    -4.277000000     3.173000000     1.732000000
H    -3.487000000     3.824000000     2.099000000
O    -2.520000000     2.227000000     3.787000000
H    -2.353000000     0.965000000     2.064000000
C    -1.606000000    -0.986000000     4.640000000
C    -1.255000000     0.203000000     5.489000000
H    -0.600000000    -0.110000000     6.305000000
H    -2.130000000     0.484000000     6.079000000
C    -0.510000000     1.245000000     4.741000000
C    -1.155000000     2.206000000     3.963000000
C    -0.430000000     3.154000000     3.279000000
H    -1.054000000     3.870000000     2.750000000
C     0.961000000     3.127000000     3.304000000
O     1.621000000     3.978000000     2.463000000
C     2.090000000     3.376000000     1.213000000
H     1.565000000     2.424000000     1.048000000
C     1.834000000     4.331000000     0.041000000
C     2.711000000     4.436000000    -1.030000000
H     3.713000000     4.019000000    -0.969000000
C     0.578000000     4.882000000    -0.099000000
H    -0.206000000     4.723000000     0.637000000
C     0.278000000     5.653000000    -1.240000000
O    -0.963000000     5.984000000    -1.546000000
C     1.226000000     5.791000000    -2.264000000
H     0.927000000     6.171000000    -3.238000000
C     2.436000000     5.148000000    -2.170000000
O     3.224000000     5.064000000    -3.347000000
C     4.246000000     4.188000000    -3.549000000
C     4.018000000     2.844000000    -3.871000000
H     3.055000000     2.341000000    -3.884000000
C     5.535000000     4.704000000    -3.701000000
H     5.730000000     5.766000000    -3.574000000
C     6.562000000     3.842000000    -4.104000000
H     7.601000000     4.088000000    -4.304000000
C     6.347000000     2.571000000    -4.565000000
H     7.204000000     2.078000000    -5.018000000
C     5.042000000     2.012000000    -4.394000000
O     4.705000000     0.831000000    -4.977000000
C     4.058000000    -0.234000000    -4.338000000
C     3.458000000    -1.166000000    -5.127000000
H     3.381000000    -1.032000000    -6.203000000
C     2.955000000    -2.317000000    -4.526000000
O     2.632000000    -3.310000000    -5.411000000
C     1.892000000    -4.417000000    -5.179000000
C     0.603000000    -4.244000000    -4.706000000
H     0.264000000    -3.224000000    -4.540000000
C     2.392000000    -5.681000000    -5.481000000
H     3.441000000    -5.725000000    -5.764000000
C     1.484000000    -6.797000000    -5.419000000
H     1.801000000    -7.816000000    -5.625000000
C     0.217000000    -6.565000000    -4.911000000
H    -0.418000000    -7.435000000    -4.763000000
C    -0.235000000    -5.371000000    -4.557000000
O    -1.505000000    -5.387000000    -4.004000000
C    -2.017000000    -4.693000000    -2.950000000
C    -3.269000000    -4.053000000    -3.128000000
H    -3.769000000    -3.954000000    -4.088000000
C    -3.830000000    -3.359000000    -2.061000000
O    -4.940000000    -2.529000000    -2.314000000
C    -5.904000000    -2.252000000    -1.375000000
C    -6.043000000    -0.915000000    -0.894000000
H    -5.337000000    -0.154000000    -1.220000000
C    -6.750000000    -3.229000000    -0.938000000
H    -6.651000000    -4.303000000    -1.076000000
C    -7.817000000    -2.855000000    -0.169000000
H    -8.533000000    -3.637000000     0.072000000
C    -8.005000000    -1.519000000     0.273000000
H    -8.826000000    -1.234000000     0.927000000
C    -7.116000000    -0.543000000    -0.131000000
O    -7.302000000     0.776000000     0.172000000
C    -6.313000000     1.573000000     0.771000000
C    -6.317000000     2.967000000     0.531000000
H    -6.982000000     3.360000000    -0.234000000
C    -5.256000000     3.755000000     0.924000000
O    -5.180000000     5.056000000     0.526000000
C    -4.020000000     5.695000000     0.562000000
C    -3.791000000     6.572000000     1.622000000
H    -4.492000000     6.760000000     2.431000000
C    -2.640000000     7.391000000     1.551000000
H    -2.531000000     8.177000000     2.294000000
C    -1.694000000     7.138000000     0.536000000
H    -0.727000000     7.634000000     0.516000000
C    -1.927000000     6.205000000    -0.522000000
C    -3.161000000     5.511000000    -0.507000000
H    -3.423000000     4.872000000    -1.346000000
C    -2.057000000     1.405000000    -1.687000000
H    -2.800000000     2.181000000    -1.851000000
C    -1.283000000     1.452000000    -0.542000000
H    -1.431000000     2.323000000     0.090000000
C    -0.431000000     0.425000000    -0.188000000
H     0.125000000     0.411000000     0.830000000
C    -0.215000000    -0.536000000    -1.146000000
H     0.518000000    -1.309000000    -0.930000000
C    -0.833000000    -0.580000000    -2.387000000
H    -0.555000000    -1.362000000    -3.089000000
C    -1.835000000     0.376000000    -2.679000000
C    -2.589000000     0.329000000    -3.990000000
O    -2.369000000    -0.591000000    -4.768000000
O    -3.440000000     1.206000000    -4.194000000
O     0.047000000    -2.754000000    -8.858000000
H    -0.383000000    -2.503000000    -8.040000000
H    -0.641000000    -3.179000000    -9.370000000
O    -1.652000000     5.459000000    -4.304000000
H    -1.976000000     4.594000000    -4.553000000
H    -1.254000000     5.327000000    -3.443000000
O    -7.209000000     1.871000000    -7.078000000
H    -8.056000000     1.631000000    -6.703000000
H    -6.643000000     2.013000000    -6.320000000
O    -6.111000000     1.388000000    -4.346000000
H    -5.219000000     1.318000000    -4.007000000
H    -6.487000000     2.135000000    -3.878000000
O     0.321000000     2.483000000    -2.925000000
H     0.021000000     1.588000000    -3.085000000
H     0.497000000     2.512000000    -1.985000000
O    -3.485000000     0.915000000    -7.189000000
H    -4.319000000     0.456000000    -7.288000000
H    -3.339000000     0.946000000    -6.244000000
O    -8.208000000    -0.362000000    -4.544000000
H    -7.294000000    -0.088000000    -4.618000000
H    -8.658000000     0.401000000    -4.180000000
O    -0.930000000     3.426000000    -7.824000000
H    -0.315000000     3.380000000    -8.556000000
H    -0.384000000     3.632000000    -7.065000000
O    -1.772000000    -2.450000000    -6.703000000
H    -2.618000000    -2.161000000    -7.046000000
H    -1.641000000    -1.923000000    -5.915000000
O    -2.218000000    -5.186000000    -7.438000000
H    -2.022000000    -4.377000000    -6.965000000
H    -3.132000000    -5.091000000    -7.705000000
O    -7.234000000     3.930000000    -2.848000000
H    -6.465000000     4.418000000    -3.143000000
H    -7.928000000     4.587000000    -2.792000000
O    -5.072000000     4.059000000    -8.001000000
H    -4.351000000     4.122000000    -7.375000000
H    -5.255000000     3.121000000    -8.063000000
O    -2.294000000     0.877000000    -9.581000000
H    -1.428000000     1.192000000    -9.321000000
H    -2.802000000     0.875000000    -8.770000000
O     0.976000000     3.616000000    -5.271000000
H     0.524000000     3.340000000    -4.473000000
H     1.654000000     4.218000000    -4.966000000
O    -5.317000000     5.834000000    -3.396000000
H    -5.320000000     6.624000000    -2.856000000
H    -4.390000000     5.653000000    -3.550000000
O    -6.134000000     0.393000000    -9.260000000
H    -6.437000000     0.980000000    -8.566000000
H    -6.321000000     0.865000000   -10.071000000
O    -3.319000000     3.528000000    -5.532000000
H    -3.324000000     2.729000000    -5.004000000
H    -2.702000000     3.343000000    -6.240000000
O    -4.847000000    -2.106000000    -5.521000000
H    -4.125000000    -1.566000000    -5.200000000
H    -5.376000000    -2.286000000    -4.743000000
O    -6.260000000    -2.215000000    -8.116000000
H    -6.187000000    -1.475000000    -8.719000000
H    -5.815000000    -1.921000000    -7.321000000
