215
-1472.03280
C     3.088000000    -0.828000000    -3.429000000
H     2.740000000    -1.771000000    -3.014000000
C     3.924000000    -0.054000000    -2.702000000
C     4.252000000     1.238000000    -3.284000000
H     4.751000000     2.009000000    -2.704000000
C     4.187000000    -0.350000000    -1.260000000
O     4.609000000    -1.791000000    -1.179000000
H     3.219000000    -0.245000000    -0.747000000
O     5.151000000     0.466000000    -0.722000000
C     4.740000000     1.036000000     0.440000000
C     4.132000000     2.334000000     0.405000000
H     4.254000000     2.962000000    -0.473000000
C     3.386000000     2.747000000     1.525000000
O     2.639000000     3.889000000     1.421000000
C     3.384000000     2.034000000     2.725000000
C     2.667000000     2.480000000     3.977000000
H     3.164000000     2.008000000     4.827000000
C     1.148000000     2.139000000     4.014000000
C     0.730000000     0.983000000     4.756000000
H     1.386000000     0.302000000     5.292000000
H     2.778000000     3.567000000     3.963000000
C     4.045000000     0.764000000     2.735000000
H     3.993000000     0.139000000     3.623000000
C     4.697000000     0.272000000     1.632000000
C     5.269000000    -1.102000000     1.793000000
H     5.515000000    -1.293000000     2.839000000
H     6.248000000    -1.274000000     1.342000000
C     4.296000000    -2.172000000     1.256000000
C     3.663000000    -2.919000000     2.234000000
H     3.886000000    -2.662000000     3.266000000
C     4.062000000    -2.448000000    -0.090000000
C     3.077000000    -3.374000000    -0.388000000
H     2.758000000    -3.581000000    -1.407000000
C     2.342000000    -4.030000000     0.593000000
O     1.364000000    -4.997000000     0.313000000
C     0.027000000    -4.490000000     0.353000000
C    -0.835000000    -4.837000000    -0.906000000
C    -2.211000000    -4.721000000    -0.873000000
H    -2.794000000    -4.491000000     0.016000000
C    -0.145000000    -4.986000000    -2.098000000
H     0.938000000    -4.894000000    -2.089000000
O    -0.681000000    -4.852000000     1.570000000
H     0.164000000    -3.402000000     0.266000000
C     2.618000000    -3.785000000     1.962000000
C     1.726000000    -4.310000000     3.108000000
H     2.166000000    -4.234000000     4.105000000
H     1.528000000    -5.383000000     3.057000000
C     0.417000000    -3.572000000     3.272000000
C     0.277000000    -2.525000000     4.194000000
H     1.055000000    -2.207000000     4.884000000
C    -0.715000000    -3.890000000     2.563000000
C    -1.881000000    -3.186000000     2.691000000
H    -2.771000000    -3.465000000     2.132000000
C    -2.015000000    -2.094000000     3.540000000
O    -3.168000000    -1.361000000     3.471000000
C    -3.024000000    -0.078000000     2.871000000
C    -4.297000000     0.164000000     2.013000000
C    -4.943000000    -0.845000000     1.293000000
H    -4.616000000    -1.881000000     1.319000000
C    -4.752000000     1.499000000     1.885000000
H    -4.209000000     2.280000000     2.411000000
O    -2.847000000     0.953000000     3.868000000
H    -2.165000000    -0.096000000     2.185000000
C    -0.898000000    -1.793000000     4.346000000
C    -0.992000000    -0.668000000     5.358000000
H    -0.355000000    -0.994000000     6.183000000
H    -2.037000000    -0.514000000     5.635000000
C    -0.604000000     0.629000000     4.724000000
C    -1.567000000     1.430000000     4.106000000
C    -1.200000000     2.664000000     3.553000000
H    -1.965000000     3.255000000     3.056000000
C     0.158000000     2.956000000     3.409000000
O     0.512000000     4.030000000     2.655000000
C     1.206000000     3.771000000     1.415000000
H     1.018000000     2.726000000     1.125000000
C     0.599000000     4.713000000     0.370000000
C     1.307000000     5.202000000    -0.686000000
H     2.390000000     5.107000000    -0.720000000
C    -0.797000000     4.906000000     0.391000000
H    -1.499000000     4.406000000     1.053000000
C    -1.366000000     5.669000000    -0.574000000
O    -2.658000000     5.790000000    -0.802000000
C    -0.630000000     6.217000000    -1.631000000
H    -1.145000000     6.745000000    -2.430000000
C     0.736000000     5.926000000    -1.729000000
O     1.485000000     6.220000000    -2.888000000
C     2.667000000     5.663000000    -3.383000000
C     2.777000000     4.462000000    -3.986000000
H     1.876000000     3.866000000    -4.108000000
C     3.825000000     6.411000000    -2.988000000
H     3.721000000     7.294000000    -2.362000000
C     5.051000000     5.885000000    -3.209000000
H     5.893000000     6.493000000    -2.888000000
C     5.135000000     4.715000000    -3.936000000
H     6.064000000     4.279000000    -4.295000000
C     4.030000000     3.970000000    -4.320000000
O     4.098000000     2.802000000    -5.072000000
C     3.783000000     1.609000000    -4.511000000
C     2.949000000     0.728000000    -5.285000000
H     2.582000000     1.035000000    -6.262000000
C     2.657000000    -0.427000000    -4.710000000
O     1.589000000    -1.209000000    -5.338000000
C     1.673000000    -2.619000000    -5.446000000
C     0.559000000    -3.355000000    -5.050000000
H    -0.283000000    -2.810000000    -4.630000000
C     2.893000000    -3.306000000    -5.693000000
H     3.792000000    -2.747000000    -5.938000000
C     2.944000000    -4.684000000    -5.654000000
H     3.853000000    -5.222000000    -5.912000000
C     1.823000000    -5.432000000    -5.302000000
H     1.890000000    -6.516000000    -5.284000000
C     0.653000000    -4.786000000    -4.915000000
O    -0.417000000    -5.556000000    -4.422000000
C    -0.887000000    -5.346000000    -3.190000000
C    -2.268000000    -5.375000000    -3.125000000
H    -2.822000000    -5.588000000    -4.036000000
C    -2.955000000    -5.113000000    -1.976000000
O    -4.324000000    -5.100000000    -1.940000000
C    -5.102000000    -4.666000000    -0.960000000
C    -5.467000000    -3.344000000    -0.986000000
H    -5.175000000    -2.649000000    -1.768000000
C    -5.483000000    -5.532000000     0.037000000
H    -5.063000000    -6.519000000    -0.142000000
C    -6.282000000    -5.037000000     1.035000000
H    -6.622000000    -5.736000000     1.795000000
C    -6.743000000    -3.698000000     1.035000000
H    -7.456000000    -3.357000000     1.780000000
C    -6.332000000    -2.892000000    -0.017000000
O    -6.701000000    -1.553000000    -0.167000000
C    -5.982000000    -0.511000000     0.482000000
C    -6.420000000     0.764000000     0.280000000
H    -7.261000000     0.959000000    -0.380000000
C    -5.816000000     1.794000000     1.004000000
O    -6.259000000     3.096000000     0.825000000
C    -5.360000000     4.120000000     1.025000000
C    -5.656000000     5.088000000     2.026000000
H    -6.511000000     4.974000000     2.687000000
C    -4.820000000     6.217000000     2.083000000
H    -5.155000000     7.001000000     2.756000000
C    -3.778000000     6.394000000     1.215000000
H    -3.222000000     7.321000000     1.329000000
C    -3.586000000     5.516000000     0.191000000
C    -4.325000000     4.361000000     0.126000000
H    -4.264000000     3.644000000    -0.689000000
C    -1.692000000     0.679000000    -0.657000000
H    -2.537000000     1.359000000    -0.600000000
C    -0.612000000     0.818000000     0.247000000
H    -0.725000000     1.483000000     1.100000000
C     0.562000000     0.084000000     0.086000000
H     1.320000000     0.204000000     0.868000000
C     0.650000000    -0.847000000    -0.960000000
H     1.471000000    -1.547000000    -1.088000000
C    -0.469000000    -0.994000000    -1.796000000
H    -0.378000000    -1.581000000    -2.706000000
C    -1.637000000    -0.248000000    -1.688000000
C    -2.678000000    -0.336000000    -2.776000000
O    -2.537000000    -1.011000000    -3.820000000
O    -3.708000000     0.322000000    -2.656000000
O     0.061000000     0.323000000    -8.180000000
H    -0.194000000     0.522000000    -9.081000000
H    -0.707000000    -0.105000000    -7.803000000
O    -6.602000000    -4.601000000    -4.090000000
H    -6.384000000    -5.466000000    -4.435000000
H    -5.822000000    -4.072000000    -4.257000000
O    -8.094000000    -1.192000000    -4.881000000
H    -8.329000000    -0.415000000    -5.388000000
H    -7.424000000    -0.886000000    -4.269000000
O    -6.101000000    -0.638000000    -3.031000000
H    -5.226000000    -0.260000000    -3.119000000
H    -6.194000000    -0.810000000    -2.094000000
O     0.393000000     2.193000000    -2.654000000
H     0.068000000     1.606000000    -3.337000000
H     0.495000000     1.632000000    -1.885000000
O    -4.791000000     0.932000000    -6.100000000
H    -4.884000000     1.369000000    -5.253000000
H    -4.910000000     0.003000000    -5.903000000
O    -7.332000000     2.044000000    -3.286000000
H    -8.265000000     1.979000000    -3.487000000
H    -7.013000000     1.143000000    -3.336000000
O     0.548000000     2.487000000    -6.644000000
H     0.676000000     1.769000000    -7.264000000
H    -0.199000000     2.214000000    -6.111000000
O    -8.511000000    -3.676000000    -2.654000000
H    -8.116000000    -4.358000000    -3.197000000
H    -7.998000000    -2.891000000    -2.844000000
O    -1.306000000     4.351000000    -4.304000000
H    -0.834000000     5.024000000    -4.793000000
H    -0.807000000     4.249000000    -3.494000000
O    -3.954000000     4.800000000    -4.487000000
H    -4.272000000     3.942000000    -4.206000000
H    -3.002000000     4.736000000    -4.419000000
O    -1.850000000    -0.729000000    -6.313000000
H    -1.942000000     0.212000000    -6.164000000
H    -1.987000000    -1.123000000    -5.451000000
O    -2.578000000    -4.309000000    -6.291000000
H    -2.808000000    -4.666000000    -7.149000000
H    -1.901000000    -3.658000000    -6.476000000
O    -4.309000000     2.699000000    -7.916000000
H    -3.826000000     2.310000000    -8.645000000
H    -4.222000000     2.063000000    -7.205000000
O    -1.651000000     1.815000000    -5.449000000
H    -2.043000000     1.492000000    -4.638000000
H    -1.705000000     2.768000000    -5.377000000
O    -4.762000000     2.470000000    -3.565000000
H    -4.330000000     1.660000000    -3.292000000
H    -5.687000000     2.327000000    -3.365000000
O    -4.591000000    -2.888000000    -4.902000000
H    -3.904000000    -3.362000000    -5.370000000
H    -4.133000000    -2.163000000    -4.475000000
O    -6.135000000    -1.891000000    -6.668000000
H    -6.802000000    -1.585000000    -6.052000000
H    -5.497000000    -2.350000000    -6.121000000
O    -1.333000000    -2.711000000    -8.156000000
H    -1.590000000    -1.972000000    -7.604000000
H    -1.505000000    -2.413000000    -9.049000000
