215
-1453.61898
C     2.852000000    -1.116000000    -3.635000000
H     2.322000000    -1.903000000    -3.106000000
C     3.672000000    -0.259000000    -2.830000000
C     4.112000000     0.939000000    -3.450000000
H     4.806000000     1.583000000    -2.915000000
C     3.910000000    -0.616000000    -1.320000000
O     4.436000000    -1.921000000    -1.104000000
H     2.904000000    -0.576000000    -0.877000000
O     4.785000000     0.363000000    -0.721000000
C     4.324000000     1.023000000     0.385000000
C     3.807000000     2.288000000     0.272000000
H     3.746000000     2.845000000    -0.660000000
C     3.381000000     2.933000000     1.456000000
O     2.744000000     4.116000000     1.392000000
C     3.377000000     2.228000000     2.669000000
C     2.722000000     2.826000000     3.930000000
H     3.236000000     2.483000000     4.830000000
C     1.268000000     2.522000000     3.958000000
C     0.887000000     1.438000000     4.636000000
H     1.656000000     0.816000000     5.088000000
H     2.748000000     3.918000000     3.907000000
C     3.877000000     0.945000000     2.687000000
H     3.858000000     0.393000000     3.623000000
C     4.433000000     0.359000000     1.578000000
C     5.133000000    -0.971000000     1.670000000
H     5.649000000    -1.103000000     2.623000000
H     5.911000000    -1.098000000     0.915000000
C     4.101000000    -2.127000000     1.380000000
C     3.340000000    -2.694000000     2.429000000
H     3.522000000    -2.313000000     3.430000000
C     3.866000000    -2.559000000     0.039000000
C     2.895000000    -3.532000000    -0.168000000
H     2.705000000    -3.878000000    -1.181000000
C     2.232000000    -4.130000000     0.887000000
O     1.210000000    -4.964000000     0.573000000
C    -0.092000000    -4.358000000     0.554000000
C    -0.876000000    -4.750000000    -0.685000000
C    -2.283000000    -4.804000000    -0.580000000
H    -2.783000000    -4.645000000     0.372000000
C    -0.268000000    -4.979000000    -1.925000000
H     0.816000000    -4.935000000    -1.997000000
O    -0.760000000    -4.722000000     1.768000000
H     0.049000000    -3.268000000     0.597000000
C     2.453000000    -3.733000000     2.229000000
C     1.644000000    -4.243000000     3.378000000
H     2.258000000    -4.084000000     4.267000000
H     1.452000000    -5.312000000     3.272000000
C     0.348000000    -3.398000000     3.525000000
C     0.372000000    -2.233000000     4.287000000
H     1.279000000    -2.020000000     4.846000000
C    -0.789000000    -3.737000000     2.737000000
C    -1.880000000    -2.878000000     2.749000000
H    -2.779000000    -2.991000000     2.148000000
C    -1.795000000    -1.769000000     3.543000000
O    -2.923000000    -1.052000000     3.415000000
C    -2.815000000     0.182000000     2.729000000
C    -4.132000000     0.508000000     1.910000000
C    -4.812000000    -0.605000000     1.343000000
H    -4.508000000    -1.625000000     1.559000000
C    -4.596000000     1.768000000     1.588000000
H    -3.999000000     2.582000000     1.989000000
O    -2.630000000     1.230000000     3.707000000
H    -1.985000000     0.043000000     2.021000000
C    -0.744000000    -1.410000000     4.386000000
C    -0.788000000    -0.281000000     5.353000000
H    -0.021000000    -0.517000000     6.093000000
H    -1.766000000    -0.237000000     5.837000000
C    -0.463000000     1.022000000     4.683000000
C    -1.407000000     1.706000000     3.898000000
C    -0.969000000     2.760000000     3.126000000
H    -1.658000000     3.323000000     2.501000000
C     0.300000000     3.303000000     3.334000000
O     0.729000000     4.373000000     2.599000000
C     1.337000000     4.090000000     1.304000000
H     1.110000000     3.032000000     1.105000000
C     0.765000000     5.029000000     0.297000000
C     1.361000000     4.945000000    -0.974000000
H     2.309000000     4.426000000    -1.088000000
C    -0.504000000     5.624000000     0.413000000
H    -0.904000000     5.752000000     1.416000000
C    -1.136000000     6.141000000    -0.731000000
O    -2.458000000     6.541000000    -0.693000000
C    -0.569000000     6.037000000    -2.006000000
H    -1.112000000     6.426000000    -2.864000000
C     0.720000000     5.511000000    -2.085000000
O     1.287000000     5.321000000    -3.300000000
C     2.612000000     4.919000000    -3.531000000
C     2.852000000     3.857000000    -4.371000000
H     2.100000000     3.179000000    -4.766000000
C     3.682000000     5.639000000    -3.013000000
H     3.513000000     6.533000000    -2.419000000
C     5.000000000     5.289000000    -3.348000000
H     5.887000000     5.814000000    -3.004000000
C     5.165000000     4.218000000    -4.132000000
H     6.177000000     3.945000000    -4.422000000
C     4.107000000     3.494000000    -4.660000000
O     4.229000000     2.273000000    -5.411000000
C     3.811000000     1.178000000    -4.771000000
C     3.048000000     0.294000000    -5.534000000
H     2.890000000     0.554000000    -6.578000000
C     2.684000000    -0.912000000    -4.987000000
O     1.785000000    -1.737000000    -5.650000000
C     1.800000000    -3.096000000    -5.375000000
C     0.646000000    -3.724000000    -5.100000000
H    -0.301000000    -3.207000000    -4.971000000
C     2.982000000    -3.812000000    -5.192000000
H     3.878000000    -3.226000000    -5.379000000
C     3.023000000    -5.116000000    -4.814000000
H     3.978000000    -5.600000000    -4.623000000
C     1.819000000    -5.798000000    -4.657000000
H     1.862000000    -6.865000000    -4.454000000
C     0.629000000    -5.109000000    -4.719000000
O    -0.522000000    -5.682000000    -4.222000000
C    -1.089000000    -5.437000000    -2.992000000
C    -2.461000000    -5.606000000    -2.843000000
H    -3.000000000    -5.960000000    -3.718000000
C    -3.056000000    -5.297000000    -1.653000000
O    -4.400000000    -5.497000000    -1.539000000
C    -5.255000000    -4.831000000    -0.652000000
C    -5.614000000    -3.511000000    -0.839000000
H    -5.280000000    -2.981000000    -1.727000000
C    -5.676000000    -5.506000000     0.540000000
H    -5.414000000    -6.513000000     0.852000000
C    -6.486000000    -4.862000000     1.399000000
H    -6.881000000    -5.455000000     2.220000000
C    -6.853000000    -3.511000000     1.252000000
H    -7.453000000    -3.012000000     2.009000000
C    -6.355000000    -2.744000000     0.135000000
O    -6.693000000    -1.399000000    -0.056000000
C    -5.875000000    -0.363000000     0.452000000
C    -6.227000000     0.873000000     0.140000000
H    -7.081000000     1.053000000    -0.509000000
C    -5.577000000     1.996000000     0.668000000
O    -5.919000000     3.288000000     0.248000000
C    -5.192000000     4.398000000     0.519000000
C    -5.692000000     5.126000000     1.576000000
H    -6.597000000     4.849000000     2.110000000
C    -5.012000000     6.240000000     1.979000000
H    -5.279000000     6.865000000     2.827000000
C    -3.824000000     6.592000000     1.283000000
H    -3.303000000     7.463000000     1.672000000
C    -3.477000000     5.986000000     0.053000000
C    -4.203000000     4.838000000    -0.343000000
H    -3.968000000     4.310000000    -1.264000000
C    -2.439000000     0.843000000    -1.352000000
H    -3.248000000     1.548000000    -1.177000000
C    -1.345000000     1.030000000    -0.559000000
H    -1.414000000     1.794000000     0.211000000
C    -0.241000000     0.267000000    -0.674000000
H     0.564000000     0.430000000    -0.009000000
C    -0.189000000    -0.712000000    -1.685000000
H     0.661000000    -1.377000000    -1.812000000
C    -1.286000000    -0.879000000    -2.479000000
H    -1.265000000    -1.743000000    -3.138000000
C    -2.467000000    -0.112000000    -2.298000000
C    -3.744000000    -0.453000000    -3.085000000
O    -3.667000000    -1.231000000    -4.029000000
O    -4.680000000     0.283000000    -2.917000000
O    -7.253000000    -4.314000000    -3.267000000
H    -6.614000000    -3.805000000    -3.766000000
H    -6.942000000    -5.217000000    -3.331000000
O    -9.150000000     0.936000000    -3.732000000
H    -8.625000000     1.306000000    -4.442000000
H    -8.558000000     0.329000000    -3.287000000
O    -6.912000000    -0.803000000    -3.348000000
H    -6.095000000    -0.311000000    -3.266000000
H    -6.805000000    -1.545000000    -2.754000000
O     0.161000000     1.460000000    -4.203000000
H    -0.347000000     1.029000000    -3.515000000
H     0.644000000     0.749000000    -4.625000000
O    -4.690000000     1.000000000    -5.549000000
H    -4.512000000     1.054000000    -4.610000000
H    -5.077000000     0.133000000    -5.670000000
O     0.418000000     1.117000000    -8.295000000
H     0.479000000     0.335000000    -8.844000000
H    -0.398000000     1.004000000    -7.807000000
O    -9.817000000    -3.296000000    -2.961000000
H    -8.893000000    -3.544000000    -2.920000000
H    -9.866000000    -2.674000000    -3.686000000
O    -0.697000000     4.072000000    -4.376000000
H    -0.475000000     3.144000000    -4.304000000
H     0.108000000     4.530000000    -4.135000000
O    -3.550000000     4.231000000    -4.190000000
H    -3.827000000     3.315000000    -4.204000000
H    -2.596000000     4.194000000    -4.259000000
O    -2.191000000    -0.446000000    -6.390000000
H    -2.625000000     0.319000000    -6.766000000
H    -2.719000000    -0.669000000    -5.623000000
O    -4.632000000    -5.097000000    -6.639000000
H    -5.341000000    -5.730000000    -6.526000000
H    -4.178000000    -5.384000000    -7.431000000
O    -6.672000000     3.872000000    -5.162000000
H    -6.542000000     3.277000000    -4.424000000
H    -5.822000000     4.297000000    -5.280000000
O    -3.036000000     2.120000000    -7.163000000
H    -3.685000000     1.770000000    -6.552000000
H    -3.038000000     3.063000000    -7.000000000
O    -8.212000000     2.068000000    -6.072000000
H    -8.005000000     1.749000000    -6.951000000
H    -7.666000000     2.848000000    -5.966000000
O    -8.965000000    -1.979000000    -7.463000000
H    -9.849000000    -1.813000000    -7.136000000
H    -8.393000000    -1.508000000    -6.857000000
O    -6.145000000     2.698000000    -2.701000000
H    -5.801000000     1.816000000    -2.841000000
H    -5.856000000     2.932000000    -1.819000000
O    -5.546000000    -3.068000000    -4.991000000
H    -5.261000000    -3.496000000    -5.798000000
H    -4.842000000    -2.453000000    -4.784000000
O    -7.034000000    -0.962000000    -5.959000000
H    -6.962000000    -0.598000000    -5.077000000
H    -6.754000000    -1.873000000    -5.866000000
O    -1.439000000    -2.397000000    -8.014000000
H    -1.665000000    -1.674000000    -7.428000000
H    -1.078000000    -1.971000000    -8.792000000
