215
-1451.23488
C     4.060000000    -1.900000000    -3.255000000
H     4.307000000    -2.826000000    -2.743000000
C     4.058000000    -0.719000000    -2.527000000
C     3.784000000     0.438000000    -3.236000000
H     3.809000000     1.369000000    -2.674000000
C     4.231000000    -0.723000000    -1.026000000
O     4.815000000    -1.892000000    -0.482000000
H     3.174000000    -0.655000000    -0.727000000
O     4.897000000     0.484000000    -0.540000000
C     4.399000000     1.157000000     0.584000000
C     3.647000000     2.282000000     0.391000000
H     3.481000000     2.680000000    -0.607000000
C     3.088000000     2.985000000     1.416000000
O     2.413000000     4.118000000     0.968000000
C     3.079000000     2.516000000     2.686000000
C     2.517000000     3.192000000     3.919000000
H     3.032000000     2.867000000     4.826000000
C     1.122000000     2.968000000     4.021000000
C     0.723000000     1.899000000     4.779000000
H     1.477000000     1.311000000     5.295000000
H     2.739000000     4.260000000     3.870000000
C     3.817000000     1.295000000     2.892000000
H     3.761000000     0.874000000     3.893000000
C     4.466000000     0.571000000     1.856000000
C     5.214000000    -0.704000000     2.096000000
H     5.766000000    -0.721000000     3.038000000
H     6.091000000    -0.611000000     1.451000000
C     4.346000000    -1.915000000     1.860000000
C     3.489000000    -2.340000000     2.852000000
H     3.596000000    -1.984000000     3.873000000
C     4.138000000    -2.434000000     0.575000000
C     3.093000000    -3.260000000     0.208000000
H     2.801000000    -3.496000000    -0.813000000
C     2.186000000    -3.601000000     1.267000000
O     1.160000000    -4.424000000     0.974000000
C    -0.147000000    -3.918000000     0.844000000
C    -0.815000000    -4.490000000    -0.385000000
C    -2.199000000    -4.406000000    -0.459000000
H    -2.729000000    -4.027000000     0.411000000
C    -0.066000000    -4.899000000    -1.502000000
H     1.021000000    -4.886000000    -1.486000000
O    -0.912000000    -4.267000000     2.031000000
H    -0.070000000    -2.826000000     0.742000000
C     2.445000000    -3.209000000     2.561000000
C     1.545000000    -3.744000000     3.753000000
H     2.149000000    -3.596000000     4.650000000
H     1.356000000    -4.810000000     3.606000000
C     0.237000000    -2.935000000     3.866000000
C     0.215000000    -1.783000000     4.702000000
H     1.153000000    -1.633000000     5.231000000
C    -0.826000000    -3.292000000     3.041000000
C    -1.933000000    -2.499000000     3.130000000
H    -2.794000000    -2.743000000     2.512000000
C    -2.023000000    -1.378000000     3.968000000
O    -3.159000000    -0.629000000     3.765000000
C    -3.135000000     0.557000000     2.926000000
C    -4.357000000     0.673000000     2.006000000
C    -5.282000000    -0.427000000     1.769000000
H    -5.063000000    -1.354000000     2.292000000
C    -4.576000000     1.867000000     1.215000000
H    -3.887000000     2.702000000     1.320000000
O    -2.849000000     1.787000000     3.678000000
H    -2.316000000     0.334000000     2.227000000
C    -0.938000000    -1.010000000     4.785000000
C    -1.058000000     0.248000000     5.548000000
H    -0.397000000     0.166000000     6.413000000
H    -2.089000000     0.358000000     5.891000000
C    -0.644000000     1.467000000     4.745000000
C    -1.541000000     2.117000000     3.867000000
C    -1.146000000     3.265000000     3.237000000
H    -1.909000000     3.774000000     2.653000000
C     0.189000000     3.656000000     3.252000000
O     0.557000000     4.590000000     2.290000000
C     0.987000000     4.074000000     0.993000000
H     0.564000000     3.063000000     0.897000000
C     0.431000000     4.742000000    -0.209000000
C     1.096000000     4.767000000    -1.453000000
H     2.102000000     4.371000000    -1.344000000
C    -0.823000000     5.344000000    -0.156000000
H    -1.371000000     5.280000000     0.781000000
C    -1.423000000     5.894000000    -1.333000000
O    -2.617000000     6.491000000    -1.273000000
C    -0.662000000     6.029000000    -2.473000000
H    -0.960000000     6.596000000    -3.351000000
C     0.590000000     5.459000000    -2.529000000
O     1.499000000     5.757000000    -3.531000000
C     2.522000000     4.905000000    -3.847000000
C     2.327000000     3.595000000    -4.210000000
H     1.340000000     3.151000000    -4.116000000
C     3.744000000     5.526000000    -4.059000000
H     3.850000000     6.593000000    -3.881000000
C     4.892000000     4.846000000    -4.489000000
H     5.813000000     5.364000000    -4.743000000
C     4.700000000     3.466000000    -4.808000000
H     5.565000000     2.903000000    -5.148000000
C     3.425000000     2.841000000    -4.684000000
O     3.245000000     1.619000000    -5.246000000
C     3.501000000     0.437000000    -4.574000000
C     3.555000000    -0.681000000    -5.280000000
H     3.421000000    -0.703000000    -6.359000000
C     3.729000000    -1.901000000    -4.626000000
O     3.775000000    -3.140000000    -5.356000000
C     3.116000000    -4.257000000    -4.801000000
C     1.770000000    -4.327000000    -4.565000000
H     1.095000000    -3.482000000    -4.671000000
C     3.963000000    -5.401000000    -4.607000000
H     4.998000000    -5.217000000    -4.881000000
C     3.484000000    -6.586000000    -4.175000000
H     4.074000000    -7.445000000    -3.867000000
C     2.127000000    -6.673000000    -3.966000000
H     1.692000000    -7.607000000    -3.620000000
C     1.275000000    -5.593000000    -4.040000000
O    -0.083000000    -5.629000000    -3.786000000
C    -0.745000000    -5.211000000    -2.701000000
C    -2.130000000    -5.016000000    -2.787000000
H    -2.607000000    -5.291000000    -3.724000000
C    -2.899000000    -4.596000000    -1.676000000
O    -4.271000000    -4.432000000    -1.924000000
C    -5.103000000    -4.213000000    -0.820000000
C    -5.657000000    -2.949000000    -0.607000000
H    -5.353000000    -2.067000000    -1.165000000
C    -5.527000000    -5.293000000    -0.066000000
H    -5.085000000    -6.265000000    -0.272000000
C    -6.435000000    -5.090000000     0.994000000
H    -6.832000000    -5.986000000     1.464000000
C    -7.027000000    -3.816000000     1.155000000
H    -7.852000000    -3.592000000     1.826000000
C    -6.622000000    -2.701000000     0.359000000
O    -7.098000000    -1.408000000     0.573000000
C    -6.314000000    -0.293000000     0.840000000
C    -6.419000000     0.833000000     0.058000000
H    -7.187000000     0.720000000    -0.703000000
C    -5.579000000     1.912000000     0.230000000
O    -5.683000000     2.940000000    -0.698000000
C    -5.176000000     4.149000000    -0.365000000
C    -5.837000000     4.865000000     0.619000000
H    -6.735000000     4.469000000     1.086000000
C    -5.381000000     6.097000000     0.933000000
H    -5.796000000     6.695000000     1.741000000
C    -4.324000000     6.717000000     0.196000000
H    -4.049000000     7.723000000     0.502000000
C    -3.631000000     5.948000000    -0.728000000
C    -4.096000000     4.690000000    -1.101000000
H    -3.605000000     4.140000000    -1.900000000
C    -2.541000000     0.609000000    -1.886000000
H    -3.452000000     1.196000000    -1.812000000
C    -1.437000000     0.975000000    -1.102000000
H    -1.457000000     1.825000000    -0.424000000
C    -0.289000000     0.219000000    -1.211000000
H     0.571000000     0.527000000    -0.631000000
C    -0.170000000    -0.906000000    -2.018000000
H     0.751000000    -1.483000000    -2.051000000
C    -1.315000000    -1.301000000    -2.774000000
H    -1.296000000    -2.255000000    -3.294000000
C    -2.507000000    -0.510000000    -2.735000000
C    -3.747000000    -0.950000000    -3.530000000
O    -3.597000000    -1.864000000    -4.319000000
O    -4.793000000    -0.324000000    -3.425000000
O    -6.945000000    -4.202000000    -3.235000000
H    -6.005000000    -4.183000000    -3.057000000
H    -7.201000000    -5.110000000    -3.074000000
O    -2.559000000    -6.105000000    -6.388000000
H    -2.983000000    -6.815000000    -6.869000000
H    -3.284000000    -5.583000000    -6.044000000
O    -8.872000000    -0.212000000    -6.104000000
H    -8.290000000     0.013000000    -6.830000000
H    -8.282000000    -0.482000000    -5.399000000
O    -7.321000000    -0.992000000    -4.084000000
H    -6.605000000    -0.602000000    -3.582000000
H    -7.047000000    -1.897000000    -4.230000000
O     0.313000000     0.566000000    -6.023000000
H    -0.439000000     0.349000000    -6.574000000
H     0.261000000    -0.052000000    -5.294000000
O    -5.195000000     0.995000000    -5.826000000
H    -5.112000000     0.478000000    -5.025000000
H    -5.638000000     1.797000000    -5.550000000
O    -8.465000000     3.738000000    -2.885000000
H    -8.712000000     3.448000000    -2.007000000
H    -7.889000000     3.047000000    -3.212000000
O    -9.740000000    -0.131000000    -2.270000000
H    -9.878000000    -1.078000000    -2.257000000
H    -8.976000000    -0.008000000    -2.833000000
O    -1.894000000     2.641000000    -4.735000000
H    -1.595000000     2.410000000    -5.615000000
H    -1.731000000     1.855000000    -4.214000000
O    -3.186000000     4.814000000    -5.648000000
H    -2.779000000     4.108000000    -5.146000000
H    -2.450000000     5.290000000    -6.033000000
O    -1.814000000    -1.988000000    -6.224000000
H    -2.219000000    -1.377000000    -6.840000000
H    -2.416000000    -2.012000000    -5.480000000
O    -5.098000000    -5.949000000    -5.001000000
H    -4.675000000    -6.596000000    -4.436000000
H    -5.831000000    -6.420000000    -5.397000000
O    -2.252000000     0.577000000    -7.342000000
H    -3.094000000     1.025000000    -7.263000000
H    -1.853000000     0.954000000    -8.126000000
O    -9.634000000    -3.348000000    -1.956000000
H    -8.792000000    -3.394000000    -2.409000000
H    -9.710000000    -4.191000000    -1.507000000
O    -6.747000000     0.248000000    -7.914000000
H    -6.114000000     0.348000000    -7.204000000
H    -6.290000000     0.572000000    -8.690000000
O    -6.390000000     1.753000000    -3.478000000
H    -5.872000000     0.959000000    -3.612000000
H    -6.018000000     2.151000000    -2.692000000
O    -5.565000000    -3.065000000    -5.616000000
H    -5.321000000    -3.957000000    -5.369000000
H    -4.913000000    -2.511000000    -5.188000000
O    -6.839000000    -2.444000000    -7.988000000
H    -6.345000000    -2.721000000    -7.216000000
H    -6.763000000    -1.490000000    -7.990000000
O    -0.489000000    -4.160000000    -7.230000000
H    -0.859000000    -3.354000000    -6.869000000
H    -0.954000000    -4.861000000    -6.774000000
