215
-1439.81831
C     3.423000000    -2.520000000    -3.138000000
H     3.506000000    -3.439000000    -2.564000000
C     3.684000000    -1.262000000    -2.616000000
C     3.465000000    -0.149000000    -3.446000000
H     3.559000000     0.821000000    -2.965000000
C     3.804000000    -1.101000000    -1.066000000
O     4.348000000    -2.294000000    -0.457000000
H     2.807000000    -0.902000000    -0.643000000
O     4.806000000    -0.080000000    -0.796000000
C     4.513000000     0.710000000     0.187000000
C     4.003000000     1.972000000    -0.176000000
H     3.982000000     2.247000000    -1.228000000
C     3.519000000     2.872000000     0.771000000
O     2.863000000     3.985000000     0.343000000
C     3.756000000     2.588000000     2.141000000
C     3.106000000     3.540000000     3.209000000
H     3.572000000     3.325000000     4.174000000
C     1.599000000     3.441000000     3.414000000
C     1.171000000     2.556000000     4.381000000
H     1.872000000     1.988000000     4.986000000
H     3.389000000     4.547000000     2.896000000
C     4.168000000     1.316000000     2.536000000
H     4.241000000     0.954000000     3.559000000
C     4.556000000     0.325000000     1.567000000
C     5.188000000    -1.021000000     1.957000000
H     5.431000000    -0.883000000     3.013000000
H     6.011000000    -1.416000000     1.358000000
C     4.105000000    -2.102000000     1.903000000
C     3.369000000    -2.454000000     3.024000000
H     3.708000000    -2.018000000     3.960000000
C     3.795000000    -2.697000000     0.714000000
C     2.858000000    -3.692000000     0.679000000
H     2.602000000    -4.198000000    -0.248000000
C     2.019000000    -3.906000000     1.764000000
O     0.806000000    -4.522000000     1.591000000
C    -0.401000000    -3.783000000     1.472000000
C    -1.178000000    -4.320000000     0.291000000
C    -2.523000000    -3.988000000     0.138000000
H    -2.809000000    -3.290000000     0.921000000
C    -0.530000000    -5.046000000    -0.776000000
H     0.549000000    -5.174000000    -0.747000000
O    -1.184000000    -3.837000000     2.735000000
H    -0.133000000    -2.754000000     1.192000000
C     2.234000000    -3.277000000     2.936000000
C     1.360000000    -3.422000000     4.176000000
H     1.962000000    -3.254000000     5.071000000
H     0.979000000    -4.445000000     4.204000000
C     0.225000000    -2.445000000     4.226000000
C     0.352000000    -1.198000000     4.852000000
H     1.294000000    -0.833000000     5.255000000
C    -1.009000000    -2.725000000     3.523000000
C    -2.084000000    -1.826000000     3.567000000
H    -3.010000000    -2.152000000     3.101000000
C    -1.912000000    -0.656000000     4.280000000
O    -2.928000000     0.269000000     4.174000000
C    -2.869000000     1.130000000     3.066000000
C    -4.187000000     1.396000000     2.275000000
C    -5.012000000     0.281000000     2.003000000
H    -4.724000000    -0.662000000     2.462000000
C    -4.626000000     2.628000000     1.738000000
H    -4.153000000     3.580000000     1.967000000
O    -2.434000000     2.427000000     3.572000000
H    -2.205000000     0.627000000     2.347000000
C    -0.666000000    -0.281000000     4.804000000
C    -0.533000000     1.062000000     5.441000000
H     0.240000000     1.027000000     6.211000000
H    -1.517000000     1.315000000     5.842000000
C    -0.222000000     2.193000000     4.480000000
C    -1.101000000     2.859000000     3.660000000
C    -0.723000000     3.814000000     2.784000000
H    -1.439000000     4.260000000     2.098000000
C     0.615000000     4.142000000     2.626000000
O     1.039000000     4.803000000     1.503000000
C     1.441000000     3.997000000     0.411000000
H     1.101000000     2.974000000     0.626000000
C     0.843000000     4.554000000    -0.884000000
C     1.647000000     4.707000000    -2.020000000
H     2.720000000     4.532000000    -1.998000000
C    -0.558000000     4.520000000    -1.051000000
H    -1.223000000     4.297000000    -0.221000000
C    -1.144000000     4.878000000    -2.249000000
O    -2.502000000     4.895000000    -2.404000000
C    -0.288000000     5.208000000    -3.296000000
H    -0.791000000     5.483000000    -4.220000000
C     1.071000000     5.046000000    -3.236000000
O     1.953000000     5.272000000    -4.290000000
C     2.820000000     4.310000000    -4.698000000
C     2.440000000     3.074000000    -5.084000000
H     1.377000000     2.899000000    -5.228000000
C     4.245000000     4.607000000    -4.612000000
H     4.613000000     5.588000000    -4.320000000
C     5.201000000     3.567000000    -4.789000000
H     6.204000000     3.847000000    -4.479000000
C     4.711000000     2.285000000    -5.129000000
H     5.416000000     1.478000000    -5.307000000
C     3.393000000     2.014000000    -5.319000000
O     2.951000000     0.779000000    -5.614000000
C     3.173000000    -0.238000000    -4.805000000
C     2.903000000    -1.464000000    -5.343000000
H     2.685000000    -1.493000000    -6.407000000
C     3.092000000    -2.645000000    -4.572000000
O     2.878000000    -3.871000000    -5.228000000
C     2.435000000    -4.932000000    -4.490000000
C     1.163000000    -4.972000000    -3.932000000
H     0.531000000    -4.093000000    -4.028000000
C     3.155000000    -6.136000000    -4.519000000
H     4.128000000    -5.978000000    -4.978000000
C     2.637000000    -7.298000000    -4.063000000
H     3.145000000    -8.257000000    -4.125000000
C     1.379000000    -7.313000000    -3.496000000
H     0.929000000    -8.272000000    -3.257000000
C     0.628000000    -6.129000000    -3.382000000
O    -0.730000000    -6.162000000    -3.027000000
C    -1.214000000    -5.526000000    -1.902000000
C    -2.534000000    -5.170000000    -1.930000000
H    -3.091000000    -5.500000000    -2.802000000
C    -3.187000000    -4.362000000    -1.027000000
O    -4.470000000    -3.952000000    -1.318000000
C    -5.351000000    -3.704000000    -0.252000000
C    -5.666000000    -2.403000000    -0.053000000
H    -5.284000000    -1.540000000    -0.592000000
C    -5.812000000    -4.690000000     0.583000000
H    -5.385000000    -5.680000000     0.442000000
C    -6.752000000    -4.341000000     1.536000000
H    -7.167000000    -5.146000000     2.137000000
C    -7.174000000    -3.012000000     1.694000000
H    -7.786000000    -2.602000000     2.493000000
C    -6.593000000    -2.045000000     0.879000000
O    -6.975000000    -0.730000000     1.059000000
C    -6.171000000     0.359000000     1.224000000
C    -6.589000000     1.627000000     0.799000000
H    -7.508000000     1.791000000     0.242000000
C    -5.772000000     2.737000000     0.942000000
O    -6.300000000     3.987000000     0.515000000
C    -5.412000000     4.922000000     0.002000000
C    -5.192000000     6.214000000     0.513000000
H    -5.859000000     6.391000000     1.353000000
C    -4.197000000     6.991000000     0.039000000
H    -4.072000000     7.964000000     0.506000000
C    -3.423000000     6.564000000    -0.972000000
H    -2.641000000     7.209000000    -1.364000000
C    -3.454000000     5.279000000    -1.499000000
C    -4.515000000     4.440000000    -1.008000000
H    -4.603000000     3.424000000    -1.385000000
C    -2.165000000     0.515000000    -0.927000000
H    -2.995000000     1.209000000    -0.820000000
C    -1.056000000     0.739000000    -0.087000000
H    -1.003000000     1.650000000     0.505000000
C    -0.044000000    -0.221000000    -0.076000000
H     0.911000000    -0.168000000     0.603000000
C    -0.093000000    -1.321000000    -0.904000000
H     0.699000000    -2.058000000    -1.007000000
C    -1.153000000    -1.429000000    -1.835000000
H    -1.146000000    -2.203000000    -2.598000000
C    -2.267000000    -0.601000000    -1.730000000
C    -3.498000000    -0.723000000    -2.712000000
O    -3.608000000    -1.569000000    -3.594000000
O    -4.331000000     0.150000000    -2.653000000
O    -6.497000000    -0.743000000    -7.857000000
H    -5.954000000    -0.932000000    -7.093000000
H    -7.391000000    -0.923000000    -7.566000000
O    -6.775000000    -1.677000000    -2.795000000
H    -6.479000000    -1.783000000    -3.698000000
H    -5.989000000    -1.419000000    -2.313000000
O     0.050000000     1.871000000    -2.957000000
H    -0.213000000     2.716000000    -2.591000000
H    -0.023000000     1.260000000    -2.224000000
O    -5.404000000    -0.723000000    -5.508000000
H    -4.763000000    -1.224000000    -5.004000000
H    -5.793000000    -0.123000000    -4.871000000
O    -7.969000000     3.102000000    -2.028000000
H    -7.969000000     4.001000000    -1.699000000
H    -8.698000000     3.075000000    -2.648000000
O    -7.092000000     3.168000000    -5.774000000
H    -6.301000000     2.930000000    -6.258000000
H    -7.047000000     2.649000000    -4.971000000
O    -2.784000000     2.170000000    -4.484000000
H    -2.359000000     2.465000000    -3.679000000
H    -3.199000000     1.341000000    -4.247000000
O    -4.215000000     3.943000000    -6.348000000
H    -3.829000000     3.216000000    -5.858000000
H    -3.531000000     4.613000000    -6.359000000
O    -1.915000000    -2.967000000    -5.126000000
H    -2.422000000    -2.471000000    -4.483000000
H    -2.307000000    -2.736000000    -5.968000000
O    -2.915000000    -2.191000000    -7.362000000
H    -3.385000000    -2.615000000    -8.080000000
H    -3.042000000    -1.254000000    -7.514000000
O    -0.421000000     0.980000000    -5.618000000
H     0.182000000     0.880000000    -4.881000000
H    -1.187000000     1.417000000    -5.244000000
O    -9.200000000    -0.661000000    -2.607000000
H    -9.618000000    -1.516000000    -2.510000000
H    -8.262000000    -0.846000000    -2.563000000
O    -3.979000000     0.550000000    -7.409000000
H    -4.278000000     0.107000000    -6.615000000
H    -4.748000000     1.027000000    -7.721000000
O    -7.041000000    -5.408000000    -2.603000000
H    -7.878000000    -5.062000000    -2.913000000
H    -6.672000000    -4.702000000    -2.072000000
O    -1.753000000     2.388000000    -8.208000000
H    -1.006000000     1.983000000    -7.768000000
H    -2.496000000     1.828000000    -7.984000000
O    -6.508000000     1.378000000    -3.667000000
H    -5.881000000     0.755000000    -3.298000000
H    -6.644000000     2.021000000    -2.971000000
O    -4.865000000    -4.301000000    -4.242000000
H    -5.272000000    -4.249000000    -3.377000000
H    -4.126000000    -3.696000000    -4.196000000
O    -6.957000000    -4.783000000    -5.826000000
H    -7.353000000    -3.926000000    -5.985000000
H    -6.179000000    -4.594000000    -5.302000000
O    -1.346000000    -5.233000000    -6.411000000
H    -1.501000000    -4.423000000    -5.925000000
H    -2.131000000    -5.759000000    -6.258000000
