215
-1470.69772
C     2.898000000    -2.636000000    -2.917000000
H     2.666000000    -3.355000000    -2.136000000
C     3.591000000    -1.489000000    -2.656000000
C     3.809000000    -0.581000000    -3.624000000
H     4.258000000     0.400000000    -3.491000000
C     3.903000000    -1.105000000    -1.213000000
O     4.430000000    -2.203000000    -0.500000000
H     2.940000000    -0.767000000    -0.803000000
O     4.856000000     0.004000000    -1.133000000
C     4.560000000     0.977000000    -0.269000000
C     4.061000000     2.178000000    -0.772000000
H     3.909000000     2.226000000    -1.847000000
C     3.521000000     3.122000000     0.106000000
O     2.814000000     4.157000000    -0.445000000
C     3.719000000     2.932000000     1.453000000
C     3.082000000     4.004000000     2.414000000
H     3.814000000     3.911000000     3.219000000
C     1.619000000     3.607000000     2.824000000
C     1.320000000     2.741000000     3.923000000
H     2.134000000     2.408000000     4.562000000
H     3.136000000     5.053000000     2.116000000
C     4.367000000     1.818000000     1.981000000
H     4.591000000     1.741000000     3.042000000
C     4.776000000     0.843000000     1.103000000
C     5.285000000    -0.458000000     1.669000000
H     5.779000000    -0.287000000     2.629000000
H     6.045000000    -0.924000000     1.038000000
C     4.280000000    -1.584000000     1.791000000
C     3.601000000    -1.840000000     3.039000000
H     3.735000000    -1.114000000     3.837000000
C     4.012000000    -2.434000000     0.725000000
C     2.943000000    -3.313000000     0.802000000
H     2.623000000    -3.968000000    -0.003000000
C     2.253000000    -3.484000000     1.991000000
O     1.189000000    -4.424000000     2.033000000
C    -0.144000000    -3.893000000     1.939000000
C    -1.004000000    -4.528000000     0.893000000
C    -2.339000000    -4.075000000     0.670000000
H    -2.758000000    -3.180000000     1.123000000
C    -0.564000000    -5.530000000     0.073000000
H     0.435000000    -5.892000000     0.302000000
O    -0.789000000    -3.843000000     3.215000000
H     0.010000000    -2.855000000     1.609000000
C     2.603000000    -2.757000000     3.179000000
C     1.815000000    -2.962000000     4.522000000
H     2.431000000    -2.733000000     5.394000000
H     1.626000000    -4.029000000     4.657000000
C     0.515000000    -2.177000000     4.512000000
C     0.612000000    -0.867000000     4.981000000
H     1.534000000    -0.418000000     5.342000000
C    -0.672000000    -2.634000000     3.915000000
C    -1.801000000    -1.789000000     3.808000000
H    -2.742000000    -2.075000000     3.345000000
C    -1.651000000    -0.424000000     4.244000000
O    -2.775000000     0.391000000     4.015000000
C    -2.720000000     1.343000000     3.005000000
C    -3.995000000     1.423000000     2.222000000
C    -4.737000000     0.218000000     2.084000000
H    -4.468000000    -0.692000000     2.613000000
C    -4.397000000     2.609000000     1.642000000
H    -3.864000000     3.539000000     1.820000000
O    -2.285000000     2.552000000     3.641000000
H    -1.956000000     0.989000000     2.297000000
C    -0.472000000     0.004000000     4.907000000
C    -0.409000000     1.416000000     5.346000000
H     0.240000000     1.659000000     6.190000000
H    -1.400000000     1.729000000     5.681000000
C    -0.021000000     2.377000000     4.204000000
C    -0.998000000     2.890000000     3.435000000
C    -0.681000000     3.730000000     2.333000000
H    -1.513000000     4.199000000     1.814000000
C     0.569000000     4.083000000     2.027000000
O     0.798000000     4.768000000     0.844000000
C     1.384000000     3.967000000    -0.250000000
H     1.262000000     2.894000000    -0.041000000
C     0.548000000     4.183000000    -1.506000000
C     1.090000000     3.866000000    -2.767000000
H     2.120000000     3.521000000    -2.769000000
C    -0.790000000     4.783000000    -1.430000000
H    -1.163000000     5.159000000    -0.481000000
C    -1.529000000     4.939000000    -2.636000000
O    -2.771000000     5.511000000    -2.785000000
C    -0.886000000     4.730000000    -3.875000000
H    -1.316000000     5.186000000    -4.763000000
C     0.373000000     4.188000000    -3.975000000
O     0.885000000     3.859000000    -5.192000000
C     2.100000000     3.289000000    -5.407000000
C     2.302000000     1.923000000    -5.553000000
H     1.483000000     1.209000000    -5.584000000
C     3.182000000     4.198000000    -5.469000000
H     3.151000000     5.258000000    -5.230000000
C     4.452000000     3.561000000    -5.687000000
H     5.385000000     4.119000000    -5.696000000
C     4.659000000     2.212000000    -5.881000000
H     5.666000000     1.824000000    -6.013000000
C     3.539000000     1.344000000    -5.827000000
O     3.668000000     0.008000000    -5.962000000
C     3.463000000    -0.857000000    -4.913000000
C     2.976000000    -2.122000000    -5.251000000
H     2.776000000    -2.377000000    -6.289000000
C     2.795000000    -3.043000000    -4.252000000
O     2.029000000    -4.132000000    -4.569000000
C     1.975000000    -5.224000000    -3.732000000
C     0.722000000    -5.593000000    -3.240000000
H    -0.144000000    -4.959000000    -3.410000000
C     3.046000000    -6.082000000    -3.474000000
H     4.019000000    -5.881000000    -3.916000000
C     2.891000000    -7.191000000    -2.658000000
H     3.768000000    -7.809000000    -2.483000000
C     1.656000000    -7.548000000    -2.152000000
H     1.655000000    -8.398000000    -1.475000000
C     0.607000000    -6.693000000    -2.402000000
O    -0.688000000    -6.883000000    -1.843000000
C    -1.294000000    -6.003000000    -0.986000000
C    -2.590000000    -5.554000000    -1.174000000
H    -3.250000000    -5.862000000    -1.981000000
C    -3.127000000    -4.631000000    -0.320000000
O    -4.426000000    -4.213000000    -0.557000000
C    -5.198000000    -3.762000000     0.476000000
C    -5.630000000    -2.475000000     0.378000000
H    -5.340000000    -1.837000000    -0.453000000
C    -5.673000000    -4.650000000     1.452000000
H    -5.420000000    -5.707000000     1.475000000
C    -6.623000000    -4.186000000     2.383000000
H    -7.062000000    -4.885000000     3.090000000
C    -7.013000000    -2.871000000     2.378000000
H    -7.712000000    -2.440000000     3.091000000
C    -6.493000000    -1.993000000     1.361000000
O    -6.877000000    -0.694000000     1.298000000
C    -5.907000000     0.332000000     1.354000000
C    -6.349000000     1.519000000     0.743000000
H    -7.249000000     1.641000000     0.145000000
C    -5.527000000     2.651000000     0.897000000
O    -5.995000000     3.852000000     0.379000000
C    -5.255000000     4.892000000    -0.151000000
C    -5.537000000     6.255000000     0.168000000
H    -6.403000000     6.479000000     0.785000000
C    -4.832000000     7.335000000    -0.318000000
H    -4.971000000     8.353000000     0.037000000
C    -3.871000000     6.991000000    -1.285000000
H    -3.225000000     7.691000000    -1.808000000
C    -3.641000000     5.752000000    -1.776000000
C    -4.278000000     4.682000000    -1.131000000
H    -4.138000000     3.650000000    -1.442000000
C    -1.866000000     0.766000000    -0.489000000
H    -2.438000000     1.661000000    -0.256000000
C    -0.627000000     0.513000000     0.002000000
H    -0.160000000     1.136000000     0.760000000
C    -0.002000000    -0.742000000    -0.277000000
H     0.889000000    -1.013000000     0.285000000
C    -0.569000000    -1.669000000    -1.089000000
H    -0.136000000    -2.651000000    -1.262000000
C    -1.821000000    -1.322000000    -1.631000000
H    -2.247000000    -2.005000000    -2.362000000
C    -2.509000000    -0.170000000    -1.304000000
C    -3.728000000     0.281000000    -2.018000000
O    -4.220000000    -0.391000000    -2.883000000
O    -4.098000000     1.470000000    -1.978000000
O    -1.161000000    -3.969000000    -6.867000000
H    -0.810000000    -3.165000000    -6.485000000
H    -1.813000000    -4.270000000    -6.233000000
O    -8.463000000    -3.551000000    -1.820000000
H    -7.980000000    -3.090000000    -2.506000000
H    -9.256000000    -3.030000000    -1.695000000
O    -8.726000000     0.685000000    -2.508000000
H    -8.036000000     1.211000000    -2.913000000
H    -9.102000000     1.257000000    -1.840000000
O    -6.619000000    -1.630000000    -3.168000000
H    -7.188000000    -0.869000000    -3.280000000
H    -5.825000000    -1.278000000    -2.764000000
O    -0.007000000     0.630000000    -3.250000000
H    -0.318000000     1.494000000    -3.520000000
H    -0.374000000     0.507000000    -2.375000000
O    -9.268000000     1.631000000    -6.119000000
H   -10.069000000     2.095000000    -5.876000000
H    -8.808000000     1.495000000    -5.291000000
O    -5.507000000    -0.210000000    -5.455000000
H    -5.036000000    -0.001000000    -4.648000000
H    -5.986000000    -1.013000000    -5.252000000
O    -3.168000000    -0.888000000    -7.447000000
H    -2.678000000    -0.098000000    -7.220000000
H    -3.683000000    -1.084000000    -6.664000000
O    -7.540000000     5.272000000    -2.928000000
H    -6.928000000     5.212000000    -3.662000000
H    -7.241000000     6.031000000    -2.428000000
O    -5.890000000     2.626000000    -6.678000000
H    -6.518000000     2.285000000    -7.316000000
H    -5.486000000     1.845000000    -6.300000000
O    -3.066000000    -5.196000000    -4.694000000
H    -3.113000000    -6.145000000    -4.582000000
H    -3.953000000    -4.940000000    -4.946000000
O    -2.541000000     2.064000000    -4.210000000
H    -2.856000000     2.949000000    -4.024000000
H    -3.028000000     1.505000000    -3.604000000
O    -0.485000000    -1.423000000    -5.545000000
H    -0.094000000    -0.925000000    -4.827000000
H    -1.427000000    -1.376000000    -5.384000000
O    -1.356000000     1.336000000    -6.821000000
H    -1.427000000     1.631000000    -5.913000000
H    -1.205000000     2.138000000    -7.322000000
O   -10.117000000    -1.591000000    -2.456000000
H   -10.337000000    -1.446000000    -3.376000000
H    -9.636000000    -0.805000000    -2.198000000
O    -5.700000000    -3.954000000    -4.501000000
H    -6.089000000    -3.453000000    -3.785000000
H    -6.377000000    -3.971000000    -5.178000000
O    -5.364000000     4.778000000    -4.846000000
H    -4.592000000     4.902000000    -5.399000000
H    -5.751000000     3.959000000    -5.155000000
O    -6.537000000     2.100000000    -3.096000000
H    -5.694000000     1.812000000    -2.748000000
H    -6.517000000     3.053000000    -3.017000000
O    -3.302000000    -2.214000000    -4.517000000
H    -3.700000000    -1.737000000    -3.789000000
H    -3.533000000    -3.129000000    -4.359000000
