215
-1466.29293
C     3.406000000    -3.195000000    -2.947000000
H     3.541000000    -4.051000000    -2.291000000
C     3.808000000    -1.880000000    -2.621000000
C     3.657000000    -0.922000000    -3.620000000
H     3.664000000     0.140000000    -3.387000000
C     4.066000000    -1.508000000    -1.155000000
O     4.535000000    -2.586000000    -0.249000000
H     3.123000000    -1.090000000    -0.772000000
O     4.935000000    -0.388000000    -1.088000000
C     4.619000000     0.707000000    -0.246000000
C     3.958000000     1.874000000    -0.728000000
H     3.858000000     1.946000000    -1.808000000
C     3.494000000     2.855000000     0.104000000
O     2.844000000     3.816000000    -0.581000000
C     3.612000000     2.783000000     1.459000000
C     3.075000000     3.847000000     2.391000000
H     3.601000000     3.927000000     3.345000000
C     1.556000000     3.731000000     2.630000000
C     1.219000000     3.133000000     3.818000000
H     1.948000000     2.783000000     4.544000000
H     3.227000000     4.817000000     1.911000000
C     4.270000000     1.687000000     1.975000000
H     4.412000000     1.646000000     3.052000000
C     4.839000000     0.656000000     1.170000000
C     5.369000000    -0.604000000     1.822000000
H     5.838000000    -0.249000000     2.742000000
H     6.183000000    -1.013000000     1.219000000
C     4.300000000    -1.669000000     1.995000000
C     3.519000000    -1.649000000     3.163000000
H     3.828000000    -1.000000000     3.978000000
C     3.935000000    -2.593000000     1.001000000
C     2.858000000    -3.389000000     1.095000000
H     2.514000000    -4.079000000     0.328000000
C     2.033000000    -3.319000000     2.233000000
O     0.967000000    -4.071000000     2.427000000
C    -0.291000000    -3.430000000     2.146000000
C    -1.225000000    -4.204000000     1.178000000
C    -2.630000000    -3.918000000     1.138000000
H    -3.106000000    -3.255000000     1.856000000
C    -0.692000000    -5.084000000     0.189000000
H     0.381000000    -5.257000000     0.216000000
O    -1.023000000    -3.248000000     3.370000000
H    -0.008000000    -2.456000000     1.719000000
C     2.406000000    -2.408000000     3.279000000
C     1.585000000    -2.410000000     4.588000000
H     2.303000000    -2.078000000     5.341000000
H     1.242000000    -3.423000000     4.810000000
C     0.366000000    -1.542000000     4.441000000
C     0.482000000    -0.173000000     4.796000000
H     1.394000000     0.382000000     5.003000000
C    -0.858000000    -2.043000000     4.018000000
C    -2.005000000    -1.223000000     4.009000000
H    -2.933000000    -1.692000000     3.692000000
C    -1.859000000     0.109000000     4.385000000
O    -2.969000000     0.870000000     4.192000000
C    -2.934000000     1.673000000     2.943000000
C    -4.308000000     1.777000000     2.217000000
C    -5.268000000     0.798000000     2.427000000
H    -5.117000000    -0.073000000     3.059000000
C    -4.476000000     2.775000000     1.289000000
H    -3.745000000     3.556000000     1.096000000
O    -2.485000000     3.027000000     3.283000000
H    -2.245000000     1.244000000     2.201000000
C    -0.625000000     0.675000000     4.801000000
C    -0.516000000     2.063000000     5.274000000
H     0.337000000     2.140000000     5.951000000
H    -1.412000000     2.496000000     5.723000000
C    -0.106000000     2.933000000     4.093000000
C    -1.145000000     3.305000000     3.175000000
C    -0.779000000     4.004000000     2.047000000
H    -1.593000000     4.205000000     1.356000000
C     0.555000000     4.162000000     1.736000000
O     0.822000000     4.691000000     0.492000000
C     1.369000000     3.783000000    -0.559000000
H     1.046000000     2.783000000    -0.234000000
C     0.763000000     4.065000000    -1.928000000
C     1.558000000     4.005000000    -3.084000000
H     2.600000000     3.714000000    -2.980000000
C    -0.617000000     4.295000000    -1.999000000
H    -1.136000000     4.284000000    -1.044000000
C    -1.272000000     4.525000000    -3.223000000
O    -2.595000000     4.825000000    -3.272000000
C    -0.456000000     4.475000000    -4.379000000
H    -0.928000000     4.569000000    -5.354000000
C     0.926000000     4.118000000    -4.291000000
O     1.572000000     4.014000000    -5.491000000
C     2.674000000     3.209000000    -5.614000000
C     2.469000000     1.832000000    -5.443000000
H     1.566000000     1.326000000    -5.113000000
C     3.928000000     3.768000000    -5.901000000
H     4.000000000     4.852000000    -5.946000000
C     4.999000000     2.911000000    -6.121000000
H     5.967000000     3.339000000    -6.369000000
C     4.799000000     1.546000000    -6.150000000
H     5.589000000     0.828000000    -6.352000000
C     3.505000000     0.987000000    -5.837000000
O     3.283000000    -0.337000000    -5.945000000
C     3.321000000    -1.234000000    -4.904000000
C     3.012000000    -2.551000000    -5.221000000
H     2.821000000    -2.807000000    -6.260000000
C     2.956000000    -3.521000000    -4.226000000
O     2.571000000    -4.806000000    -4.612000000
C     2.105000000    -5.786000000    -3.801000000
C     0.893000000    -5.483000000    -3.114000000
H     0.386000000    -4.593000000    -3.476000000
C     2.782000000    -6.962000000    -3.624000000
H     3.726000000    -7.082000000    -4.149000000
C     2.344000000    -7.899000000    -2.714000000
H     2.933000000    -8.752000000    -2.389000000
C     1.146000000    -7.661000000    -2.051000000
H     0.821000000    -8.439000000    -1.365000000
C     0.363000000    -6.498000000    -2.242000000
O    -0.903000000    -6.413000000    -1.741000000
C    -1.481000000    -5.556000000    -0.819000000
C    -2.849000000    -5.336000000    -0.850000000
H    -3.509000000    -5.767000000    -1.599000000
C    -3.391000000    -4.435000000     0.123000000
O    -4.799000000    -4.257000000     0.052000000
C    -5.560000000    -3.632000000     1.024000000
C    -6.069000000    -2.329000000     0.763000000
H    -5.775000000    -1.860000000    -0.172000000
C    -5.709000000    -4.205000000     2.326000000
H    -5.232000000    -5.147000000     2.582000000
C    -6.327000000    -3.508000000     3.328000000
H    -6.378000000    -3.971000000     4.310000000
C    -6.850000000    -2.226000000     3.082000000
H    -7.344000000    -1.643000000     3.855000000
C    -6.649000000    -1.669000000     1.817000000
O    -7.176000000    -0.368000000     1.566000000
C    -6.396000000     0.767000000     1.611000000
C    -6.651000000     1.806000000     0.751000000
H    -7.630000000     1.937000000     0.298000000
C    -5.688000000     2.735000000     0.536000000
O    -5.991000000     3.837000000    -0.136000000
C    -5.155000000     4.687000000    -0.683000000
C    -5.042000000     5.910000000    -0.100000000
H    -5.598000000     6.165000000     0.799000000
C    -4.080000000     6.764000000    -0.613000000
H    -3.821000000     7.696000000    -0.116000000
C    -3.274000000     6.422000000    -1.708000000
H    -2.468000000     7.106000000    -1.961000000
C    -3.344000000     5.130000000    -2.173000000
C    -4.378000000     4.310000000    -1.745000000
H    -4.428000000     3.293000000    -2.125000000
C    -2.246000000     0.552000000    -0.978000000
H    -2.764000000     1.488000000    -1.170000000
C    -1.082000000     0.600000000    -0.250000000
H    -0.736000000     1.501000000     0.250000000
C    -0.257000000    -0.553000000    -0.156000000
H     0.656000000    -0.603000000     0.328000000
C    -0.576000000    -1.714000000    -0.871000000
H     0.094000000    -2.568000000    -0.820000000
C    -1.804000000    -1.751000000    -1.522000000
H    -2.179000000    -2.656000000    -1.993000000
C    -2.664000000    -0.616000000    -1.592000000
C    -3.929000000    -0.758000000    -2.438000000
O    -4.116000000    -1.788000000    -2.998000000
O    -4.465000000     0.259000000    -2.843000000
O    -0.896000000    -4.630000000    -5.567000000
H    -0.806000000    -3.700000000    -5.777000000
H    -1.808000000    -4.726000000    -5.295000000
O    -8.773000000    -3.143000000    -0.671000000
H    -9.262000000    -2.597000000    -0.056000000
H    -8.008000000    -2.617000000    -0.902000000
O    -8.390000000     1.352000000    -2.102000000
H    -7.714000000     1.711000000    -2.676000000
H    -8.943000000     2.102000000    -1.885000000
O    -7.199000000    -1.134000000    -1.930000000
H    -7.796000000    -0.401000000    -2.077000000
H    -6.371000000    -0.851000000    -2.319000000
O     0.213000000     1.073000000    -3.219000000
H    -0.446000000     1.676000000    -3.563000000
H    -0.242000000     0.591000000    -2.528000000
O    -7.703000000     0.502000000    -6.205000000
H    -7.084000000    -0.219000000    -6.092000000
H    -7.500000000     1.106000000    -5.491000000
O    -5.977000000    -1.416000000    -5.036000000
H    -5.449000000    -1.366000000    -4.239000000
H    -6.714000000    -1.979000000    -4.800000000
O    -3.772000000    -3.520000000    -7.479000000
H    -3.263000000    -2.827000000    -7.058000000
H    -3.844000000    -4.203000000    -6.813000000
O    -3.314000000    -0.950000000    -6.407000000
H    -3.371000000    -0.072000000    -6.785000000
H    -4.155000000    -1.076000000    -5.966000000
O    -2.074000000     1.487000000    -4.266000000
H    -2.922000000     1.380000000    -3.834000000
H    -2.238000000     1.244000000    -5.177000000
O    -0.302000000    -1.167000000    -4.841000000
H    -0.187000000    -0.304000000    -4.441000000
H    -1.151000000    -1.469000000    -4.517000000
O    -4.197000000     1.549000000    -7.591000000
H    -4.486000000     2.405000000    -7.909000000
H    -4.757000000     0.922000000    -8.048000000
O   -10.332000000    -0.329000000    -2.439000000
H   -10.002000000    -1.063000000    -2.958000000
H    -9.577000000     0.251000000    -2.339000000
O    -5.819000000    -3.858000000    -2.829000000
H    -5.918000000    -3.893000000    -1.877000000
H    -5.181000000    -3.160000000    -2.977000000
O    -4.718000000     3.311000000    -5.226000000
H    -4.745000000     4.001000000    -5.888000000
H    -4.600000000     2.503000000    -5.725000000
O    -6.520000000     1.536000000    -3.970000000
H    -5.817000000     1.086000000    -3.502000000
H    -6.103000000     2.314000000    -4.339000000
O    -9.744000000    -2.111000000    -4.106000000
H   -10.423000000    -2.345000000    -4.738000000
H    -9.393000000    -2.950000000    -3.809000000
O    -3.444000000    -3.797000000    -4.715000000
H    -3.239000000    -2.988000000    -4.246000000
H    -4.178000000    -4.175000000    -4.230000000
O    -6.818000000    -5.301000000    -5.169000000
H    -6.422000000    -5.083000000    -4.325000000
H    -7.179000000    -4.472000000    -5.485000000
