215
-1464.20617
C     3.038000000    -3.220000000    -2.872000000
H     3.063000000    -3.842000000    -1.981000000
C     3.481000000    -1.913000000    -2.723000000
C     3.503000000    -1.176000000    -3.895000000
H     3.815000000    -0.140000000    -3.793000000
C     3.788000000    -1.442000000    -1.316000000
O     4.222000000    -2.492000000    -0.443000000
H     2.961000000    -0.853000000    -0.892000000
O     4.843000000    -0.471000000    -1.311000000
C     4.672000000     0.668000000    -0.586000000
C     4.069000000     1.764000000    -1.149000000
H     3.738000000     1.737000000    -2.184000000
C     3.773000000     2.879000000    -0.365000000
O     3.049000000     3.910000000    -0.874000000
C     3.929000000     2.916000000     0.992000000
C     3.434000000     3.998000000     1.968000000
H     4.030000000     3.876000000     2.875000000
C     1.965000000     3.978000000     2.407000000
C     1.600000000     3.359000000     3.586000000
H     2.350000000     3.054000000     4.312000000
H     3.629000000     5.006000000     1.596000000
C     4.504000000     1.795000000     1.562000000
H     4.474000000     1.672000000     2.642000000
C     4.878000000     0.692000000     0.828000000
C     5.351000000    -0.592000000     1.634000000
H     5.782000000    -0.276000000     2.586000000
H     6.204000000    -1.160000000     1.259000000
C     4.216000000    -1.580000000     1.839000000
C     3.547000000    -1.542000000     3.036000000
H     3.793000000    -0.773000000     3.764000000
C     3.863000000    -2.530000000     0.894000000
C     2.790000000    -3.397000000     1.168000000
H     2.488000000    -4.155000000     0.450000000
C     2.056000000    -3.307000000     2.387000000
O     0.947000000    -4.085000000     2.535000000
C    -0.343000000    -3.417000000     2.462000000
C    -1.274000000    -4.225000000     1.512000000
C    -2.651000000    -3.996000000     1.649000000
H    -3.109000000    -3.459000000     2.475000000
C    -0.733000000    -5.040000000     0.474000000
H     0.342000000    -5.159000000     0.367000000
O    -0.802000000    -3.028000000     3.762000000
H    -0.215000000    -2.470000000     1.916000000
C     2.507000000    -2.385000000     3.355000000
C     1.814000000    -2.235000000     4.718000000
H     2.528000000    -1.803000000     5.422000000
H     1.568000000    -3.202000000     5.162000000
C     0.628000000    -1.292000000     4.592000000
C     0.815000000     0.021000000     4.946000000
H     1.791000000     0.315000000     5.322000000
C    -0.594000000    -1.726000000     4.124000000
C    -1.669000000    -0.885000000     3.943000000
H    -2.585000000    -1.344000000     3.580000000
C    -1.531000000     0.438000000     4.287000000
O    -2.638000000     1.234000000     4.208000000
C    -2.637000000     1.993000000     2.958000000
C    -3.965000000     1.986000000     2.242000000
C    -4.707000000     0.820000000     2.133000000
H    -4.461000000    -0.126000000     2.607000000
C    -4.365000000     3.068000000     1.488000000
H    -3.815000000     4.003000000     1.425000000
O    -2.073000000     3.244000000     3.311000000
H    -1.932000000     1.530000000     2.253000000
C    -0.301000000     0.925000000     4.794000000
C    -0.112000000     2.399000000     5.180000000
H     0.594000000     2.599000000     5.989000000
H    -0.963000000     2.814000000     5.725000000
C     0.240000000     3.189000000     3.938000000
C    -0.753000000     3.557000000     3.024000000
C    -0.438000000     4.295000000     1.884000000
H    -1.241000000     4.613000000     1.224000000
C     0.912000000     4.528000000     1.558000000
O     1.121000000     4.896000000     0.194000000
C     1.551000000     3.876000000    -0.756000000
H     1.104000000     2.912000000    -0.471000000
C     0.833000000     4.041000000    -2.109000000
C     1.437000000     3.712000000    -3.287000000
H     2.481000000     3.408000000    -3.317000000
C    -0.576000000     4.261000000    -2.083000000
H    -1.142000000     4.422000000    -1.169000000
C    -1.330000000     4.257000000    -3.258000000
O    -2.767000000     4.430000000    -3.226000000
C    -0.716000000     3.930000000    -4.392000000
H    -1.399000000     4.012000000    -5.234000000
C     0.659000000     3.684000000    -4.456000000
O     1.018000000     3.143000000    -5.738000000
C     2.150000000     2.462000000    -6.049000000
C     2.216000000     1.121000000    -6.063000000
H     1.326000000     0.546000000    -5.820000000
C     3.328000000     3.185000000    -6.359000000
H     3.400000000     4.260000000    -6.214000000
C     4.436000000     2.507000000    -6.896000000
H     5.294000000     3.035000000    -7.305000000
C     4.443000000     1.143000000    -6.944000000
H     5.163000000     0.519000000    -7.466000000
C     3.369000000     0.415000000    -6.419000000
O     3.295000000    -0.912000000    -6.343000000
C     3.210000000    -1.676000000    -5.172000000
C     2.862000000    -2.997000000    -5.309000000
H     2.678000000    -3.479000000    -6.266000000
C     2.815000000    -3.768000000    -4.154000000
O     2.469000000    -5.113000000    -4.367000000
C     1.986000000    -5.867000000    -3.323000000
C     0.714000000    -5.599000000    -2.797000000
H     0.009000000    -4.888000000    -3.220000000
C     2.856000000    -6.811000000    -2.787000000
H     3.855000000    -7.008000000    -3.168000000
C     2.348000000    -7.465000000    -1.650000000
H     3.087000000    -8.031000000    -1.088000000
C     1.033000000    -7.376000000    -1.265000000
H     0.676000000    -8.136000000    -0.575000000
C     0.149000000    -6.463000000    -1.826000000
O    -1.228000000    -6.458000000    -1.489000000
C    -1.615000000    -5.750000000    -0.360000000
C    -2.978000000    -5.617000000    -0.188000000
H    -3.667000000    -6.208000000    -0.787000000
C    -3.442000000    -4.765000000     0.825000000
O    -4.854000000    -4.652000000     0.934000000
C    -5.560000000    -3.778000000     1.748000000
C    -5.546000000    -2.455000000     1.422000000
H    -5.013000000    -2.151000000     0.525000000
C    -6.334000000    -4.215000000     2.820000000
H    -6.193000000    -5.243000000     3.145000000
C    -7.232000000    -3.381000000     3.443000000
H    -7.814000000    -3.802000000     4.259000000
C    -7.298000000    -2.049000000     3.053000000
H    -8.022000000    -1.359000000     3.479000000
C    -6.433000000    -1.622000000     2.025000000
O    -6.716000000    -0.392000000     1.472000000
C    -5.919000000     0.718000000     1.394000000
C    -6.430000000     1.910000000     0.830000000
H    -7.319000000     1.960000000     0.207000000
C    -5.639000000     3.055000000     0.837000000
O    -6.018000000     4.171000000     0.185000000
C    -5.097000000     4.983000000    -0.459000000
C    -4.877000000     6.332000000    -0.173000000
H    -5.616000000     6.816000000     0.461000000
C    -3.944000000     7.065000000    -0.870000000
H    -3.935000000     8.142000000    -0.727000000
C    -3.322000000     6.412000000    -1.936000000
H    -2.585000000     6.985000000    -2.493000000
C    -3.472000000     5.031000000    -2.243000000
C    -4.420000000     4.316000000    -1.478000000
H    -4.613000000     3.260000000    -1.647000000
C    -2.311000000     0.300000000    -0.816000000
H    -3.084000000     1.059000000    -0.913000000
C    -1.071000000     0.666000000    -0.280000000
H    -0.914000000     1.676000000     0.088000000
C    -0.028000000    -0.236000000    -0.207000000
H     0.945000000     0.120000000     0.197000000
C    -0.275000000    -1.546000000    -0.598000000
H     0.592000000    -2.202000000    -0.604000000
C    -1.537000000    -1.940000000    -1.084000000
H    -1.610000000    -2.990000000    -1.357000000
C    -2.533000000    -0.983000000    -1.200000000
C    -3.911000000    -1.376000000    -1.744000000
O    -4.065000000    -2.459000000    -2.192000000
O    -4.876000000    -0.622000000    -1.680000000
O    -0.865000000    -4.994000000    -5.635000000
H    -0.972000000    -4.098000000    -5.955000000
H    -1.445000000    -5.048000000    -4.875000000
O    -8.386000000    -4.311000000    -1.466000000
H    -9.167000000    -4.171000000    -0.930000000
H    -7.842000000    -3.541000000    -1.303000000
O    -8.940000000    -0.130000000    -2.113000000
H    -8.091000000     0.305000000    -2.202000000
H    -9.517000000     0.545000000    -1.755000000
O    -5.400000000    -5.145000000    -6.173000000
H    -4.622000000    -5.543000000    -5.780000000
H    -5.785000000    -4.624000000    -5.468000000
O    -7.068000000    -2.127000000    -1.991000000
H    -7.534000000    -1.394000000    -2.394000000
H    -6.183000000    -1.795000000    -1.842000000
O     0.285000000    -0.350000000    -3.409000000
H     0.257000000     0.606000000    -3.458000000
H    -0.132000000    -0.559000000    -2.573000000
O    -7.211000000    -1.628000000    -6.546000000
H    -6.431000000    -1.194000000    -6.203000000
H    -7.494000000    -2.207000000    -5.837000000
O    -4.913000000    -1.273000000    -4.594000000
H    -4.414000000    -0.487000000    -4.819000000
H    -4.924000000    -1.284000000    -3.637000000
O    -1.676000000     1.235000000    -4.963000000
H    -2.607000000     1.269000000    -5.182000000
H    -1.287000000     1.957000000    -5.456000000
O    -6.846000000    -6.725000000    -2.093000000
H    -7.385000000    -7.279000000    -2.657000000
H    -7.249000000    -5.859000000    -2.152000000
O    -1.453000000    -1.664000000    -4.949000000
H    -0.740000000    -1.319000000    -4.412000000
H    -2.007000000    -0.904000000    -5.128000000
O    -6.148000000     2.650000000    -4.860000000
H    -6.884000000     2.444000000    -5.436000000
H    -6.515000000     3.248000000    -4.208000000
O    -8.638000000    -3.686000000    -4.140000000
H    -8.522000000    -3.785000000    -3.195000000
H    -8.832000000    -4.570000000    -4.452000000
O    -9.228000000    -1.961000000     0.123000000
H    -8.346000000    -1.985000000     0.493000000
H    -9.117000000    -1.552000000    -0.735000000
O    -5.716000000    -4.061000000    -3.636000000
H    -6.475000000    -3.563000000    -3.332000000
H    -4.980000000    -3.456000000    -3.544000000
O    -4.250000000     1.026000000    -6.080000000
H    -4.753000000     1.730000000    -5.673000000
H    -4.581000000     0.982000000    -6.977000000
O    -6.756000000     1.211000000    -2.373000000
H    -6.074000000     0.628000000    -2.041000000
H    -6.480000000     1.418000000    -3.266000000
O    -2.611000000    -3.977000000    -3.885000000
H    -2.313000000    -3.173000000    -4.311000000
H    -3.002000000    -3.681000000    -3.063000000
O    -4.167000000    -6.565000000    -3.184000000
H    -3.882000000    -5.674000000    -3.386000000
H    -5.095000000    -6.477000000    -2.967000000
