215
-1450.29903
C    -3.084000000     1.198000000    -3.886000000
H    -3.121000000     0.164000000    -4.220000000
C    -1.857000000     1.837000000    -3.748000000
C    -1.899000000     3.144000000    -3.308000000
H    -0.992000000     3.742000000    -3.318000000
C    -0.529000000     1.038000000    -4.007000000
O    -0.894000000    -0.154000000    -4.750000000
H    -0.109000000     0.733000000    -3.037000000
O     0.444000000     1.753000000    -4.749000000
C     1.744000000     1.676000000    -4.272000000
C     2.157000000     2.712000000    -3.378000000
H     1.483000000     3.505000000    -3.064000000
C     3.345000000     2.547000000    -2.615000000
O     3.635000000     3.409000000    -1.619000000
C     3.997000000     1.304000000    -2.695000000
C     5.240000000     1.047000000    -1.843000000
H     5.991000000     0.519000000    -2.435000000
C     4.842000000     0.543000000    -0.434000000
C     5.008000000    -0.844000000    -0.243000000
H     5.347000000    -1.395000000    -1.116000000
H     5.626000000     2.061000000    -1.724000000
C     3.488000000     0.256000000    -3.514000000
H     4.014000000    -0.693000000    -3.580000000
C     2.415000000     0.452000000    -4.327000000
C     1.888000000    -0.712000000    -5.343000000
H     2.729000000    -1.251000000    -5.784000000
H     1.343000000    -0.256000000    -6.172000000
C     1.008000000    -1.589000000    -4.580000000
C     1.586000000    -2.713000000    -3.992000000
H     2.660000000    -2.824000000    -4.125000000
C    -0.371000000    -1.365000000    -4.405000000
C    -1.154000000    -2.164000000    -3.639000000
H    -2.190000000    -1.909000000    -3.432000000
C    -0.570000000    -3.262000000    -2.995000000
O    -1.397000000    -4.037000000    -2.222000000
C    -1.241000000    -4.068000000    -0.686000000
C    -2.587000000    -4.094000000    -0.057000000
C    -2.863000000    -4.574000000     1.245000000
H    -2.150000000    -5.114000000     1.863000000
C    -3.580000000    -3.252000000    -0.692000000
H    -3.434000000    -2.738000000    -1.639000000
O    -0.363000000    -5.153000000    -0.375000000
H    -0.721000000    -3.138000000    -0.412000000
C     0.829000000    -3.530000000    -3.182000000
C     1.445000000    -4.719000000    -2.474000000
H     2.331000000    -5.019000000    -3.038000000
H     0.783000000    -5.587000000    -2.465000000
C     1.900000000    -4.596000000    -1.041000000
C     3.151000000    -4.066000000    -0.724000000
H     3.929000000    -3.775000000    -1.425000000
C     0.880000000    -4.712000000    -0.070000000
C     1.144000000    -4.402000000     1.280000000
H     0.434000000    -4.533000000     2.092000000
C     2.368000000    -3.813000000     1.568000000
O     2.453000000    -3.315000000     2.851000000
C     2.263000000    -1.931000000     2.932000000
C     1.312000000    -1.552000000     4.045000000
C     0.580000000    -2.507000000     4.762000000
H     0.893000000    -3.547000000     4.706000000
C     0.910000000    -0.173000000     4.105000000
H     1.403000000     0.577000000     3.491000000
O     3.530000000    -1.184000000     3.020000000
H     1.773000000    -1.566000000     2.018000000
C     3.394000000    -3.720000000     0.612000000
C     4.704000000    -3.011000000     0.924000000
H     5.571000000    -3.322000000     0.337000000
H     4.974000000    -3.209000000     1.963000000
C     4.602000000    -1.443000000     0.891000000
C     4.048000000    -0.713000000     1.860000000
C     3.908000000     0.632000000     1.741000000
H     3.393000000     1.122000000     2.563000000
C     4.404000000     1.332000000     0.622000000
O     4.362000000     2.706000000     0.526000000
C     3.276000000     3.148000000    -0.306000000
H     2.520000000     2.350000000    -0.260000000
C     2.764000000     4.370000000     0.389000000
C     1.994000000     5.362000000    -0.263000000
H     2.026000000     5.299000000    -1.347000000
C     2.735000000     4.428000000     1.795000000
H     3.214000000     3.641000000     2.371000000
C     1.961000000     5.453000000     2.438000000
O     2.053000000     5.532000000     3.793000000
C     1.343000000     6.477000000     1.752000000
H     0.798000000     7.281000000     2.241000000
C     1.350000000     6.416000000     0.396000000
O     0.826000000     7.355000000    -0.389000000
C     0.042000000     7.088000000    -1.534000000
C    -1.046000000     6.278000000    -1.412000000
H    -1.297000000     5.834000000    -0.453000000
C     0.412000000     7.629000000    -2.743000000
H     1.277000000     8.283000000    -2.807000000
C    -0.228000000     7.298000000    -3.906000000
H     0.039000000     7.779000000    -4.844000000
C    -1.324000000     6.429000000    -3.850000000
H    -1.743000000     6.064000000    -4.784000000
C    -1.770000000     6.005000000    -2.595000000
O    -2.927000000     5.245000000    -2.527000000
C    -3.030000000     3.925000000    -2.995000000
C    -4.228000000     3.273000000    -3.247000000
H    -5.122000000     3.868000000    -3.081000000
C    -4.271000000     1.928000000    -3.709000000
O    -5.555000000     1.385000000    -3.864000000
C    -5.799000000     0.022000000    -3.519000000
C    -5.525000000    -0.503000000    -2.299000000
H    -4.875000000     0.041000000    -1.618000000
C    -6.519000000    -0.771000000    -4.432000000
H    -6.655000000    -0.418000000    -5.451000000
C    -7.027000000    -2.014000000    -4.057000000
H    -7.478000000    -2.626000000    -4.834000000
C    -6.789000000    -2.496000000    -2.758000000
H    -7.032000000    -3.513000000    -2.462000000
C    -6.034000000    -1.684000000    -1.838000000
O    -5.727000000    -2.155000000    -0.550000000
C    -4.768000000    -3.075000000    -0.049000000
C    -5.045000000    -3.652000000     1.126000000
H    -5.864000000    -3.285000000     1.739000000
C    -4.095000000    -4.399000000     1.844000000
O    -4.435000000    -4.920000000     3.051000000
C    -3.588000000    -5.005000000     4.184000000
C    -2.677000000    -3.984000000     4.569000000
H    -2.623000000    -3.056000000     4.006000000
C    -3.688000000    -6.177000000     5.011000000
H    -4.388000000    -6.970000000     4.761000000
C    -2.796000000    -6.317000000     6.067000000
H    -2.804000000    -7.210000000     6.687000000
C    -1.996000000    -5.212000000     6.485000000
H    -1.529000000    -5.139000000     7.464000000
C    -1.945000000    -4.042000000     5.772000000
O    -1.297000000    -2.913000000     6.249000000
C    -0.427000000    -2.084000000     5.619000000
C    -0.715000000    -0.715000000     5.760000000
H    -1.441000000    -0.363000000     6.488000000
C    -0.028000000     0.231000000     5.044000000
O    -0.384000000     1.576000000     5.111000000
C     0.590000000     2.550000000     5.342000000
C     1.411000000     2.498000000     6.494000000
H     1.181000000     1.774000000     7.271000000
C     2.428000000     3.438000000     6.633000000
H     3.124000000     3.392000000     7.466000000
C     2.608000000     4.372000000     5.691000000
H     3.404000000     5.092000000     5.864000000
C     1.778000000     4.448000000     4.570000000
C     0.757000000     3.535000000     4.406000000
H     0.018000000     3.552000000     3.609000000
C    -1.522000000     0.106000000     1.608000000
H    -1.805000000    -0.658000000     2.326000000
C    -0.523000000    -0.227000000     0.702000000
H    -0.129000000    -1.239000000     0.667000000
C     0.002000000     0.784000000    -0.084000000
H     0.891000000     0.616000000    -0.661000000
C    -0.638000000     2.045000000    -0.177000000
H    -0.233000000     2.800000000    -0.845000000
C    -1.696000000     2.327000000     0.673000000
H    -2.137000000     3.313000000     0.548000000
C    -2.177000000     1.388000000     1.574000000
C    -3.289000000     1.680000000     2.557000000
O    -3.778000000     2.829000000     2.650000000
O    -3.669000000     0.821000000     3.358000000
O    -5.090000000     8.148000000     0.735000000
H    -5.300000000     7.221000000     0.845000000
H    -4.749000000     8.419000000     1.587000000
O    -5.922000000     0.069000000     1.337000000
H    -5.637000000    -0.331000000     2.159000000
H    -6.017000000    -0.668000000     0.733000000
O    -6.885000000    -2.048000000     4.937000000
H    -7.301000000    -1.325000000     5.407000000
H    -6.041000000    -1.696000000     4.654000000
O    -7.485000000     0.684000000     5.689000000
H    -8.358000000     0.926000000     5.382000000
H    -6.893000000     1.013000000     5.013000000
O    -4.010000000     4.413000000     8.412000000
H    -4.508000000     4.465000000     7.596000000
H    -3.692000000     3.511000000     8.442000000
O    -7.105000000     4.155000000    -0.702000000
H    -7.965000000     3.754000000    -0.578000000
H    -6.486000000     3.502000000    -0.375000000
O    -4.441000000    -0.515000000     8.541000000
H    -4.342000000     0.042000000     7.769000000
H    -4.755000000    -1.350000000     8.195000000
O    -4.531000000    -1.259000000     4.267000000
H    -4.136000000    -0.543000000     3.771000000
H    -4.573000000    -0.934000000     5.166000000
O    -3.079000000     5.453000000     2.581000000
H    -2.144000000     5.539000000     2.397000000
H    -3.219000000     4.511000000     2.675000000
O    -5.406000000     2.438000000     0.231000000
H    -4.771000000     2.764000000     0.868000000
H    -5.681000000     1.590000000     0.580000000
O    -4.009000000     0.969000000     5.912000000
H    -4.207000000     1.897000000     6.038000000
H    -3.965000000     0.860000000     4.962000000
O    -6.810000000     4.886000000     5.132000000
H    -6.771000000     5.825000000     4.952000000
H    -7.639000000     4.765000000     5.595000000
O    -9.344000000     3.273000000     2.754000000
H    -8.416000000     3.066000000     2.864000000
H    -9.536000000     3.035000000     1.847000000
O    -7.548000000     6.984000000     2.874000000
H    -7.260000000     7.592000000     3.555000000
H    -6.752000000     6.518000000     2.617000000
O    -4.570000000     3.379000000     5.488000000
H    -4.331000000     3.297000000     4.564000000
H    -5.341000000     3.946000000     5.486000000
O    -2.241000000     1.836000000     8.153000000
H    -1.512000000     1.221000000     8.237000000
H    -2.649000000     1.609000000     7.318000000
O    -3.486000000     6.870000000     5.679000000
H    -3.423000000     6.288000000     4.922000000
H    -2.608000000     7.239000000     5.772000000
O    -5.557000000     5.714000000     1.453000000
H    -5.711000000     5.267000000     0.621000000
H    -4.683000000     5.430000000     1.720000000
O    -6.600000000     2.484000000     3.531000000
H    -5.671000000     2.378000000     3.325000000
H    -6.626000000     3.219000000     4.144000000
