215
-1474.92494
C     2.032000000    -3.844000000    -3.630000000
H     2.116000000    -4.548000000    -2.805000000
C     2.557000000    -2.559000000    -3.480000000
C     2.340000000    -1.616000000    -4.484000000
H     2.723000000    -0.599000000    -4.442000000
C     3.146000000    -2.034000000    -2.181000000
O     3.474000000    -3.223000000    -1.362000000
H     2.420000000    -1.431000000    -1.616000000
O     4.378000000    -1.314000000    -2.321000000
C     4.525000000    -0.220000000    -1.488000000
C     4.095000000     0.987000000    -1.979000000
H     3.808000000     1.047000000    -3.025000000
C     3.916000000     2.060000000    -1.093000000
O     3.238000000     3.168000000    -1.595000000
C     4.394000000     2.014000000     0.193000000
C     4.352000000     3.242000000     1.092000000
H     5.209000000     3.174000000     1.766000000
C     3.063000000     3.216000000     1.879000000
C     2.920000000     2.525000000     3.064000000
H     3.732000000     1.976000000     3.534000000
H     4.514000000     4.187000000     0.570000000
C     4.774000000     0.759000000     0.643000000
H     5.044000000     0.635000000     1.688000000
C     4.905000000    -0.359000000    -0.161000000
C     5.238000000    -1.734000000     0.544000000
H     5.793000000    -1.503000000     1.456000000
H     5.884000000    -2.349000000    -0.086000000
C     3.975000000    -2.430000000     0.980000000
C     3.555000000    -2.435000000     2.335000000
H     4.115000000    -1.950000000     3.131000000
C     3.219000000    -3.108000000     0.021000000
C     2.103000000    -3.771000000     0.445000000
H     1.388000000    -4.215000000    -0.242000000
C     1.836000000    -3.968000000     1.786000000
O     0.564000000    -4.397000000     2.034000000
C    -0.520000000    -3.439000000     2.219000000
C    -1.782000000    -3.880000000     1.431000000
C    -3.079000000    -3.539000000     1.842000000
H    -3.175000000    -2.967000000     2.761000000
C    -1.623000000    -4.536000000     0.218000000
H    -0.596000000    -4.843000000     0.036000000
O    -0.748000000    -3.350000000     3.616000000
H    -0.164000000    -2.451000000     1.892000000
C     2.608000000    -3.336000000     2.796000000
C     2.076000000    -3.291000000     4.233000000
H     2.866000000    -3.174000000     4.977000000
H     1.530000000    -4.200000000     4.493000000
C     1.211000000    -2.119000000     4.346000000
C     1.759000000    -0.841000000     4.470000000
H     2.840000000    -0.747000000     4.395000000
C    -0.174000000    -2.208000000     4.173000000
C    -0.975000000    -1.135000000     4.384000000
H    -2.047000000    -1.290000000     4.292000000
C    -0.401000000     0.106000000     4.604000000
O    -1.304000000     1.161000000     4.644000000
C    -1.433000000     2.027000000     3.508000000
C    -2.826000000     2.442000000     3.316000000
C    -3.923000000     1.576000000     3.404000000
H    -3.770000000     0.531000000     3.658000000
C    -3.062000000     3.746000000     2.815000000
H    -2.202000000     4.374000000     2.598000000
O    -0.637000000     3.112000000     3.807000000
H    -1.072000000     1.471000000     2.630000000
C     0.958000000     0.294000000     4.651000000
C     1.532000000     1.665000000     5.007000000
H     2.467000000     1.553000000     5.560000000
H     0.912000000     2.237000000     5.700000000
C     1.691000000     2.530000000     3.743000000
C     0.621000000     3.248000000     3.226000000
C     0.752000000     3.715000000     1.948000000
H    -0.138000000     4.111000000     1.466000000
C     1.939000000     3.751000000     1.258000000
O     1.978000000     4.307000000    -0.030000000
C     1.911000000     3.354000000    -1.084000000
H     1.585000000     2.407000000    -0.627000000
C     0.881000000     3.856000000    -2.115000000
C     1.003000000     3.378000000    -3.422000000
H     1.777000000     2.672000000    -3.712000000
C    -0.179000000     4.682000000    -1.744000000
H    -0.299000000     4.941000000    -0.695000000
C    -1.160000000     5.067000000    -2.624000000
O    -2.207000000     5.923000000    -2.270000000
C    -1.016000000     4.577000000    -3.951000000
H    -1.690000000     4.926000000    -4.729000000
C     0.082000000     3.780000000    -4.394000000
O     0.209000000     3.287000000    -5.661000000
C     1.192000000     2.442000000    -6.162000000
C     1.078000000     1.070000000    -6.039000000
H     0.365000000     0.626000000    -5.349000000
C     2.138000000     2.940000000    -6.986000000
H     2.242000000     4.010000000    -7.152000000
C     2.944000000     2.044000000    -7.697000000
H     3.668000000     2.416000000    -8.418000000
C     2.788000000     0.667000000    -7.581000000
H     3.268000000     0.075000000    -8.356000000
C     1.884000000     0.199000000    -6.676000000
O     1.617000000    -1.140000000    -6.749000000
C     1.724000000    -2.015000000    -5.664000000
C     1.235000000    -3.340000000    -5.820000000
H     0.737000000    -3.561000000    -6.762000000
C     1.321000000    -4.204000000    -4.759000000
O     0.797000000    -5.485000000    -4.874000000
C     0.163000000    -6.049000000    -3.828000000
C    -1.098000000    -5.577000000    -3.412000000
H    -1.499000000    -4.684000000    -3.884000000
C     0.841000000    -7.090000000    -3.163000000
H     1.796000000    -7.396000000    -3.581000000
C     0.319000000    -7.602000000    -1.940000000
H     0.766000000    -8.396000000    -1.346000000
C    -0.835000000    -7.086000000    -1.423000000
H    -1.146000000    -7.480000000    -0.459000000
C    -1.565000000    -6.129000000    -2.183000000
O    -2.708000000    -5.704000000    -1.585000000
C    -2.752000000    -4.914000000    -0.472000000
C    -4.019000000    -4.465000000    -0.084000000
H    -4.907000000    -4.728000000    -0.653000000
C    -4.212000000    -3.786000000     1.073000000
O    -5.478000000    -3.299000000     1.248000000
C    -5.913000000    -2.465000000     2.230000000
C    -6.077000000    -1.094000000     1.993000000
H    -6.022000000    -0.709000000     0.978000000
C    -5.919000000    -3.051000000     3.511000000
H    -5.727000000    -4.113000000     3.634000000
C    -5.944000000    -2.149000000     4.579000000
H    -5.976000000    -2.627000000     5.555000000
C    -6.172000000    -0.797000000     4.370000000
H    -6.329000000    -0.116000000     5.203000000
C    -6.185000000    -0.246000000     3.075000000
O    -6.341000000     1.132000000     2.940000000
C    -5.226000000     1.972000000     3.016000000
C    -5.460000000     3.227000000     2.517000000
H    -6.434000000     3.548000000     2.155000000
C    -4.349000000     4.044000000     2.350000000
O    -4.566000000     5.365000000     1.879000000
C    -3.775000000     6.129000000     1.044000000
C    -3.363000000     7.427000000     1.414000000
H    -3.732000000     7.855000000     2.342000000
C    -2.470000000     8.136000000     0.553000000
H    -2.173000000     9.135000000     0.861000000
C    -1.965000000     7.577000000    -0.627000000
H    -1.211000000     7.990000000    -1.293000000
C    -2.488000000     6.360000000    -1.001000000
C    -3.396000000     5.627000000    -0.225000000
H    -3.779000000     4.672000000    -0.575000000
C    -1.590000000     1.114000000    -2.170000000
H    -1.541000000     1.589000000    -3.147000000
C    -0.464000000     0.447000000    -1.646000000
H     0.407000000     0.473000000    -2.297000000
C    -0.469000000    -0.263000000    -0.445000000
H     0.423000000    -0.746000000    -0.073000000
C    -1.696000000    -0.289000000     0.311000000
H    -1.755000000    -0.910000000     1.201000000
C    -2.808000000     0.425000000    -0.162000000
H    -3.625000000     0.464000000     0.555000000
C    -2.802000000     1.125000000    -1.458000000
C    -4.093000000     1.682000000    -2.019000000
O    -5.196000000     1.411000000    -1.528000000
O    -4.095000000     2.639000000    -2.881000000
O    -2.402000000     4.835000000    -7.021000000
H    -2.401000000     4.169000000    -7.708000000
H    -3.194000000     4.654000000    -6.514000000
O    -9.557000000     3.829000000    -3.049000000
H    -8.679000000     3.832000000    -2.669000000
H   -10.018000000     3.132000000    -2.583000000
O    -7.406000000     1.572000000     0.057000000
H    -7.072000000     1.637000000     0.951000000
H    -6.629000000     1.654000000    -0.496000000
O    -6.675000000     3.673000000    -2.250000000
H    -6.014000000     4.290000000    -2.563000000
H    -6.190000000     2.865000000    -2.083000000
O    -2.921000000     2.155000000    -8.339000000
H    -1.980000000     2.077000000    -8.497000000
H    -3.006000000     2.122000000    -7.386000000
O   -10.737000000     0.568000000    -2.924000000
H   -10.897000000    -0.375000000    -2.953000000
H    -9.783000000     0.648000000    -2.893000000
O    -5.055000000    -1.866000000    -5.226000000
H    -5.538000000    -2.691000000    -5.261000000
H    -5.114000000    -1.592000000    -4.310000000
O    -2.458000000    -0.587000000    -5.107000000
H    -2.127000000    -0.776000000    -5.985000000
H    -3.381000000    -0.838000000    -5.140000000
O    -6.086000000     6.783000000    -1.688000000
H    -5.217000000     6.845000000    -2.085000000
H    -6.675000000     7.162000000    -2.340000000
O    -5.641000000    -1.315000000    -2.161000000
H    -5.494000000    -0.459000000    -1.758000000
H    -4.776000000    -1.727000000    -2.169000000
O    -7.436000000     4.976000000     0.167000000
H    -7.509000000     4.118000000    -0.252000000
H    -7.027000000     5.532000000    -0.496000000
O    -3.300000000     2.155000000    -5.468000000
H    -3.527000000     2.383000000    -4.567000000
H    -2.836000000     1.321000000    -5.394000000
O    -7.342000000    -3.360000000    -2.613000000
H    -6.743000000    -3.777000000    -3.233000000
H    -6.871000000    -2.584000000    -2.310000000
O    -2.972000000    -1.894000000    -2.869000000
H    -2.176000000    -2.092000000    -2.376000000
H    -2.674000000    -1.346000000    -3.595000000
O    -7.981000000     0.383000000    -2.392000000
H    -7.196000000    -0.162000000    -2.350000000
H    -8.089000000     0.719000000    -1.502000000
O    -4.637000000     5.106000000    -3.560000000
H    -3.762000000     5.494000000    -3.545000000
H    -4.484000000     4.166000000    -3.467000000
O    -8.097000000     2.090000000    -6.908000000
H    -7.695000000     1.829000000    -6.080000000
H    -7.359000000     2.217000000    -7.503000000
O    -6.529000000     1.194000000    -4.656000000
H    -5.727000000     1.567000000    -4.289000000
H    -7.078000000     1.011000000    -3.894000000
O    -5.409000000     5.530000000    -6.237000000
H    -5.606000000     6.452000000    -6.072000000
H    -5.317000000     5.146000000    -5.365000000
