215
-1462.10323
C    -2.900000000     1.956000000    -3.810000000
H    -3.193000000     0.932000000    -4.026000000
C    -1.530000000     2.346000000    -3.803000000
C    -1.224000000     3.666000000    -3.439000000
H    -0.194000000     3.967000000    -3.267000000
C    -0.422000000     1.243000000    -3.913000000
O    -0.674000000     0.208000000    -4.863000000
H    -0.260000000     0.825000000    -2.908000000
O     0.758000000     1.928000000    -4.346000000
C     1.854000000     1.565000000    -3.654000000
C     2.321000000     2.495000000    -2.773000000
H     1.725000000     3.387000000    -2.599000000
C     3.463000000     2.246000000    -2.008000000
O     3.787000000     3.162000000    -1.021000000
C     4.199000000     1.062000000    -2.248000000
C     5.443000000     0.734000000    -1.418000000
H     6.175000000     0.158000000    -1.988000000
C     4.997000000    -0.017000000    -0.148000000
C     4.919000000    -1.417000000    -0.116000000
H     5.325000000    -1.912000000    -0.994000000
H     5.890000000     1.677000000    -1.097000000
C     3.761000000     0.105000000    -3.239000000
H     4.273000000    -0.844000000    -3.372000000
C     2.585000000     0.396000000    -3.965000000
C     2.157000000    -0.582000000    -5.069000000
H     3.033000000    -1.157000000    -5.378000000
H     1.804000000    -0.074000000    -5.969000000
C     1.060000000    -1.455000000    -4.520000000
C     1.497000000    -2.741000000    -4.072000000
H     2.545000000    -3.027000000    -4.112000000
C    -0.312000000    -1.095000000    -4.485000000
C    -1.209000000    -1.985000000    -3.889000000
H    -2.248000000    -1.711000000    -3.726000000
C    -0.777000000    -3.210000000    -3.346000000
O    -1.679000000    -3.900000000    -2.571000000
C    -1.588000000    -3.812000000    -1.097000000
C    -2.947000000    -3.637000000    -0.456000000
C    -3.354000000    -4.386000000     0.648000000
H    -2.602000000    -5.042000000     1.081000000
C    -3.842000000    -2.683000000    -0.965000000
H    -3.667000000    -2.081000000    -1.853000000
O    -0.927000000    -5.035000000    -0.694000000
H    -0.979000000    -2.928000000    -0.856000000
C     0.566000000    -3.556000000    -3.435000000
C     1.104000000    -4.804000000    -2.697000000
H     1.947000000    -5.082000000    -3.332000000
H     0.533000000    -5.734000000    -2.746000000
C     1.351000000    -4.612000000    -1.216000000
C     2.622000000    -4.221000000    -0.805000000
H     3.500000000    -4.301000000    -1.441000000
C     0.335000000    -4.875000000    -0.276000000
C     0.651000000    -4.767000000     1.090000000
H    -0.149000000    -4.805000000     1.825000000
C     1.924000000    -4.269000000     1.477000000
O     2.054000000    -3.886000000     2.747000000
C     1.933000000    -2.470000000     2.996000000
C     0.905000000    -2.094000000     4.085000000
C    -0.076000000    -3.003000000     4.511000000
H    -0.019000000    -4.067000000     4.295000000
C     0.806000000    -0.686000000     4.437000000
H     1.427000000     0.069000000     3.961000000
O     3.222000000    -1.851000000     3.210000000
H     1.526000000    -2.029000000     2.074000000
C     2.908000000    -4.027000000     0.538000000
C     4.299000000    -3.567000000     0.967000000
H     4.932000000    -3.971000000     0.174000000
H     4.736000000    -4.026000000     1.856000000
C     4.356000000    -2.052000000     1.003000000
C     3.893000000    -1.313000000     2.090000000
C     3.935000000     0.055000000     2.059000000
H     3.517000000     0.600000000     2.902000000
C     4.461000000     0.688000000     0.996000000
O     4.383000000     2.058000000     1.012000000
C     3.357000000     2.797000000     0.244000000
H     2.446000000     2.205000000     0.071000000
C     2.806000000     4.033000000     0.930000000
C     2.387000000     5.140000000     0.170000000
H     2.406000000     5.197000000    -0.915000000
C     2.494000000     4.033000000     2.274000000
H     2.656000000     3.092000000     2.794000000
C     1.783000000     5.071000000     2.866000000
O     1.441000000     5.110000000     4.232000000
C     1.500000000     6.219000000     2.147000000
H     1.038000000     7.121000000     2.540000000
C     1.793000000     6.201000000     0.783000000
O     1.345000000     7.347000000     0.063000000
C     0.939000000     7.271000000    -1.238000000
C    -0.284000000     6.601000000    -1.548000000
H    -0.805000000     5.970000000    -0.832000000
C     1.683000000     7.875000000    -2.222000000
H     2.605000000     8.369000000    -1.925000000
C     1.122000000     7.947000000    -3.542000000
H     1.741000000     8.471000000    -4.265000000
C    -0.024000000     7.246000000    -3.846000000
H    -0.473000000     7.275000000    -4.836000000
C    -0.730000000     6.583000000    -2.834000000
O    -1.978000000     6.057000000    -3.135000000
C    -2.233000000     4.666000000    -3.391000000
C    -3.610000000     4.222000000    -3.461000000
H    -4.442000000     4.899000000    -3.287000000
C    -3.904000000     2.874000000    -3.533000000
O    -5.281000000     2.559000000    -3.586000000
C    -5.645000000     1.206000000    -3.374000000
C    -5.564000000     0.604000000    -2.106000000
H    -5.213000000     1.147000000    -1.233000000
C    -6.341000000     0.669000000    -4.433000000
H    -6.444000000     1.304000000    -5.309000000
C    -6.803000000    -0.654000000    -4.291000000
H    -7.403000000    -1.064000000    -5.099000000
C    -6.583000000    -1.411000000    -3.095000000
H    -7.017000000    -2.399000000    -2.967000000
C    -6.064000000    -0.682000000    -1.948000000
O    -5.927000000    -1.329000000    -0.757000000
C    -5.129000000    -2.449000000    -0.407000000
C    -5.471000000    -3.255000000     0.687000000
H    -6.459000000    -3.065000000     1.098000000
C    -4.621000000    -4.227000000     1.219000000
O    -4.984000000    -4.994000000     2.345000000
C    -4.207000000    -5.165000000     3.512000000
C    -3.299000000    -4.161000000     3.934000000
H    -3.241000000    -3.226000000     3.382000000
C    -4.316000000    -6.335000000     4.332000000
H    -4.830000000    -7.177000000     3.874000000
C    -3.669000000    -6.412000000     5.523000000
H    -3.778000000    -7.258000000     6.196000000
C    -2.872000000    -5.348000000     6.014000000
H    -2.441000000    -5.378000000     7.011000000
C    -2.712000000    -4.270000000     5.183000000
O    -2.154000000    -3.199000000     5.761000000
C    -1.088000000    -2.479000000     5.315000000
C    -1.054000000    -1.192000000     5.838000000
H    -1.668000000    -0.882000000     6.679000000
C    -0.086000000    -0.283000000     5.461000000
O    -0.195000000     1.050000000     5.922000000
C     0.796000000     1.922000000     5.866000000
C     2.043000000     1.530000000     6.293000000
H     2.231000000     0.532000000     6.679000000
C     3.055000000     2.497000000     6.162000000
H     4.053000000     2.217000000     6.490000000
C     2.883000000     3.644000000     5.413000000
H     3.707000000     4.297000000     5.136000000
C     1.681000000     4.004000000     5.004000000
C     0.643000000     3.158000000     5.226000000
H    -0.288000000     3.351000000     4.699000000
C    -1.275000000    -0.530000000     1.280000000
H    -1.597000000    -1.501000000     1.646000000
C    -0.284000000    -0.374000000     0.277000000
H     0.140000000    -1.223000000    -0.252000000
C     0.106000000     0.896000000    -0.155000000
H     0.593000000     0.878000000    -1.125000000
C    -0.426000000     2.022000000     0.486000000
H    -0.204000000     3.029000000     0.143000000
C    -1.295000000     1.871000000     1.552000000
H    -1.614000000     2.808000000     2.001000000
C    -1.741000000     0.631000000     1.991000000
C    -2.809000000     0.567000000     3.013000000
O    -3.019000000     1.601000000     3.635000000
O    -3.430000000    -0.440000000     3.348000000
O    -4.464000000     7.186000000     0.384000000
H    -4.320000000     6.384000000     0.886000000
H    -5.409000000     7.333000000     0.432000000
O    -7.207000000    -0.064000000     2.117000000
H    -6.891000000    -0.789000000     2.657000000
H    -7.620000000    -0.488000000     1.365000000
O    -8.157000000    -2.428000000     4.460000000
H    -7.964000000    -2.042000000     5.315000000
H    -7.305000000    -2.489000000     4.028000000
O    -6.641000000     2.590000000     7.192000000
H    -6.663000000     2.331000000     6.270000000
H    -5.942000000     3.242000000     7.241000000
O    -1.117000000     2.767000000     8.300000000
H    -1.810000000     2.413000000     7.743000000
H    -0.679000000     1.994000000     8.658000000
O    -4.479000000    -0.723000000     8.591000000
H    -5.067000000    -1.389000000     8.234000000
H    -4.150000000    -0.257000000     7.822000000
O    -5.225000000    -2.907000000     6.152000000
H    -4.345000000    -2.537000000     6.082000000
H    -5.088000000    -3.785000000     6.509000000
O    -7.408000000    -1.436000000     7.269000000
H    -6.604000000    -1.927000000     7.098000000
H    -7.831000000    -1.911000000     7.984000000
O    -8.323000000     1.928000000    -0.180000000
H    -8.679000000     1.749000000    -1.051000000
H    -8.256000000     1.067000000     0.232000000
O    -5.652000000    -1.875000000     3.691000000
H    -4.817000000    -1.503000000     3.409000000
H    -5.536000000    -2.044000000     4.626000000
O    -2.486000000     4.296000000     3.855000000
H    -2.986000000     4.745000000     3.173000000
H    -2.611000000     3.365000000     3.669000000
O    -5.248000000     1.733000000     1.272000000
H    -4.530000000     1.505000000     1.862000000
H    -5.976000000     1.180000000     1.554000000
O    -4.210000000    -0.078000000     5.958000000
H    -3.817000000     0.694000000     6.365000000
H    -3.799000000    -0.130000000     5.095000000
O    -4.266000000     4.973000000     7.055000000
H    -4.721000000     5.753000000     6.735000000
H    -4.101000000     5.155000000     7.980000000
O    -7.153000000     3.347000000     2.441000000
H    -6.566000000     2.639000000     2.706000000
H    -7.530000000     3.048000000     1.613000000
O    -3.105000000     2.282000000     6.461000000
H    -3.051000000     2.271000000     5.506000000
H    -3.552000000     3.104000000     6.666000000
O    -1.667000000     7.197000000     4.885000000
H    -1.822000000     6.339000000     4.489000000
H    -0.920000000     7.059000000     5.468000000
O    -4.581000000     4.912000000     1.778000000
H    -4.892000000     4.172000000     1.257000000
H    -5.141000000     4.911000000     2.554000000
O    -6.434000000     1.296000000     4.795000000
H    -6.833000000     0.566000000     4.322000000
H    -5.671000000     0.913000000     5.229000000
