215
-1439.74029
C     1.893000000    -4.134000000    -2.968000000
H     2.316000000    -4.898000000    -2.321000000
C     2.288000000    -2.733000000    -2.935000000
C     1.817000000    -1.870000000    -3.971000000
H     2.030000000    -0.806000000    -3.900000000
C     3.005000000    -2.256000000    -1.692000000
O     3.507000000    -3.256000000    -0.801000000
H     2.249000000    -1.671000000    -1.148000000
O     4.142000000    -1.404000000    -2.020000000
C     4.279000000    -0.261000000    -1.284000000
C     3.933000000     0.916000000    -1.937000000
H     3.765000000     1.033000000    -3.005000000
C     3.856000000     2.059000000    -1.164000000
O     3.299000000     3.101000000    -1.764000000
C     4.369000000     2.147000000     0.150000000
C     4.371000000     3.485000000     0.905000000
H     5.155000000     3.420000000     1.663000000
C     3.060000000     3.754000000     1.554000000
C     2.817000000     3.378000000     2.890000000
H     3.586000000     3.073000000     3.595000000
H     4.613000000     4.345000000     0.277000000
C     4.835000000     0.979000000     0.713000000
H     5.141000000     1.010000000     1.756000000
C     4.764000000    -0.224000000     0.061000000
C     5.300000000    -1.507000000     0.651000000
H     6.027000000    -1.445000000     1.464000000
H     5.803000000    -2.166000000    -0.060000000
C     4.184000000    -2.288000000     1.269000000
C     3.880000000    -2.161000000     2.655000000
H     4.417000000    -1.456000000     3.284000000
C     3.296000000    -3.046000000     0.512000000
C     2.287000000    -3.732000000     1.082000000
H     1.752000000    -4.406000000     0.418000000
C     1.969000000    -3.596000000     2.377000000
O     0.694000000    -4.022000000     2.811000000
C    -0.354000000    -3.003000000     2.871000000
C    -1.515000000    -3.765000000     2.249000000
C    -2.890000000    -3.438000000     2.613000000
H    -3.044000000    -2.791000000     3.472000000
C    -1.319000000    -4.642000000     1.190000000
H    -0.379000000    -4.941000000     0.732000000
O    -0.638000000    -2.474000000     4.204000000
H    -0.026000000    -2.102000000     2.331000000
C     2.686000000    -2.623000000     3.151000000
C     2.262000000    -2.234000000     4.533000000
H     3.225000000    -1.948000000     4.961000000
H     1.926000000    -3.142000000     5.039000000
C     1.243000000    -1.090000000     4.683000000
C     1.664000000     0.238000000     4.778000000
H     2.747000000     0.327000000     4.779000000
C    -0.092000000    -1.268000000     4.503000000
C    -0.987000000    -0.201000000     4.616000000
H    -2.016000000    -0.433000000     4.351000000
C    -0.566000000     1.144000000     4.767000000
O    -1.454000000     2.120000000     4.466000000
C    -1.392000000     2.586000000     3.101000000
C    -2.752000000     2.456000000     2.387000000
C    -3.901000000     1.794000000     2.877000000
H    -3.878000000     1.217000000     3.798000000
C    -2.888000000     3.035000000     1.156000000
H    -2.033000000     3.568000000     0.750000000
O    -0.889000000     3.939000000     3.072000000
H    -0.657000000     1.954000000     2.582000000
C     0.804000000     1.365000000     4.750000000
C     1.282000000     2.849000000     4.784000000
H     2.120000000     2.891000000     5.483000000
H     0.578000000     3.382000000     5.427000000
C     1.517000000     3.460000000     3.409000000
C     0.438000000     4.006000000     2.605000000
C     0.703000000     4.516000000     1.367000000
H    -0.028000000     4.782000000     0.608000000
C     1.985000000     4.339000000     0.813000000
O     2.189000000     4.655000000    -0.489000000
C     1.939000000     3.503000000    -1.423000000
H     1.369000000     2.688000000    -0.953000000
C     1.230000000     3.980000000    -2.650000000
C     1.278000000     3.327000000    -3.904000000
H     1.745000000     2.345000000    -3.888000000
C     0.414000000     5.114000000    -2.531000000
H     0.298000000     5.602000000    -1.567000000
C    -0.321000000     5.568000000    -3.601000000
O    -1.245000000     6.585000000    -3.486000000
C    -0.196000000     4.925000000    -4.805000000
H    -0.638000000     5.385000000    -5.685000000
C     0.485000000     3.709000000    -4.964000000
O     0.593000000     3.044000000    -6.127000000
C     1.251000000     1.905000000    -6.376000000
C     0.566000000     0.685000000    -6.259000000
H    -0.506000000     0.692000000    -6.082000000
C     2.597000000     1.953000000    -6.741000000
H     3.125000000     2.870000000    -6.990000000
C     3.263000000     0.727000000    -7.005000000
H     4.278000000     0.833000000    -7.380000000
C     2.625000000    -0.531000000    -6.761000000
H     3.167000000    -1.467000000    -6.873000000
C     1.278000000    -0.539000000    -6.401000000
O     0.538000000    -1.615000000    -6.026000000
C     1.011000000    -2.352000000    -4.987000000
C     0.643000000    -3.699000000    -4.948000000
H     0.099000000    -4.132000000    -5.784000000
C     1.065000000    -4.509000000    -3.948000000
O     0.711000000    -5.860000000    -4.035000000
C     0.102000000    -6.503000000    -2.996000000
C    -0.836000000    -5.882000000    -2.222000000
H    -1.284000000    -4.912000000    -2.424000000
C     0.494000000    -7.822000000    -2.784000000
H     1.280000000    -8.248000000    -3.402000000
C     0.045000000    -8.465000000    -1.628000000
H     0.398000000    -9.479000000    -1.462000000
C    -0.931000000    -7.921000000    -0.846000000
H    -1.440000000    -8.404000000    -0.016000000
C    -1.304000000    -6.636000000    -1.108000000
O    -2.418000000    -6.215000000    -0.354000000
C    -2.480000000    -5.214000000     0.628000000
C    -3.790000000    -4.936000000     1.008000000
H    -4.627000000    -5.397000000     0.489000000
C    -3.980000000    -3.975000000     1.951000000
O    -5.229000000    -3.698000000     2.323000000
C    -5.756000000    -2.598000000     3.012000000
C    -5.652000000    -1.294000000     2.495000000
H    -5.091000000    -1.112000000     1.583000000
C    -6.282000000    -2.717000000     4.341000000
H    -6.340000000    -3.738000000     4.710000000
C    -6.954000000    -1.631000000     4.900000000
H    -7.525000000    -1.787000000     5.812000000
C    -6.804000000    -0.405000000     4.373000000
H    -7.403000000     0.321000000     4.917000000
C    -6.092000000    -0.183000000     3.201000000
O    -6.151000000     1.107000000     2.762000000
C    -5.045000000     1.709000000     2.146000000
C    -5.095000000     2.285000000     0.912000000
H    -6.054000000     2.300000000     0.400000000
C    -4.003000000     3.025000000     0.384000000
O    -4.043000000     3.640000000    -0.856000000
C    -3.639000000     4.962000000    -1.175000000
C    -3.853000000     6.051000000    -0.240000000
H    -4.369000000     5.912000000     0.707000000
C    -3.244000000     7.288000000    -0.456000000
H    -3.319000000     8.006000000     0.357000000
C    -2.470000000     7.508000000    -1.610000000
H    -2.028000000     8.491000000    -1.749000000
C    -2.258000000     6.485000000    -2.543000000
C    -2.859000000     5.162000000    -2.314000000
H    -2.652000000     4.309000000    -2.955000000
C    -0.990000000     0.682000000    -2.302000000
H    -0.884000000     0.966000000    -3.346000000
C     0.210000000     0.493000000    -1.714000000
H     1.127000000     0.682000000    -2.266000000
C     0.328000000     0.037000000    -0.391000000
H     1.346000000    -0.061000000     0.127000000
C    -0.841000000    -0.188000000     0.264000000
H    -0.778000000    -0.563000000     1.282000000
C    -2.121000000     0.029000000    -0.290000000
H    -3.028000000    -0.198000000     0.265000000
C    -2.202000000     0.493000000    -1.634000000
C    -3.577000000     0.604000000    -2.294000000
O    -4.651000000     0.574000000    -1.783000000
O    -3.567000000     0.654000000    -3.519000000
O    -2.330000000    -1.553000000    -8.141000000
H    -2.311000000    -1.397000000    -7.197000000
H    -2.381000000    -0.678000000    -8.527000000
O    -7.978000000    -0.069000000    -0.167000000
H    -7.044000000    -0.192000000     0.003000000
H    -8.407000000    -0.342000000     0.644000000
O    -6.919000000     2.180000000    -2.125000000
H    -7.369000000     1.462000000    -1.679000000
H    -5.989000000     1.965000000    -2.046000000
O    -3.083000000     2.803000000    -7.471000000
H    -3.367000000     3.598000000    -7.020000000
H    -3.842000000     2.221000000    -7.431000000
O    -3.472000000    -3.803000000    -5.002000000
H    -3.540000000    -4.271000000    -4.170000000
H    -3.614000000    -4.476000000    -5.668000000
O    -3.908000000    -3.770000000    -2.289000000
H    -3.059000000    -3.597000000    -1.880000000
H    -4.420000000    -2.979000000    -2.121000000
O    -5.816000000    -1.810000000    -1.284000000
H    -5.417000000    -0.947000000    -1.394000000
H    -6.380000000    -1.913000000    -2.050000000
O    -5.345000000     1.418000000    -6.835000000
H    -5.521000000     0.650000000    -6.292000000
H    -5.417000000     2.159000000    -6.233000000
O    -7.290000000     4.776000000    -1.972000000
H    -7.046000000     3.860000000    -2.105000000
H    -7.118000000     5.196000000    -2.814000000
O    -9.108000000    -0.144000000    -4.965000000
H    -8.427000000     0.528000000    -4.988000000
H    -9.559000000    -0.001000000    -4.133000000
O    -7.442000000    -2.080000000    -3.539000000
H    -8.092000000    -1.494000000    -3.927000000
H    -7.866000000    -2.938000000    -3.532000000
O    -2.797000000    -0.951000000    -5.421000000
H    -2.992000000    -0.285000000    -4.761000000
H    -2.813000000    -1.777000000    -4.939000000
O    -8.144000000     2.269000000    -4.752000000
H    -7.569000000     2.623000000    -5.430000000
H    -7.656000000     2.389000000    -3.937000000
O    -7.061000000    -4.190000000    -0.319000000
H    -6.671000000    -3.320000000    -0.410000000
H    -6.403000000    -4.785000000    -0.678000000
O    -6.299000000    -4.040000000    -5.995000000
H    -5.929000000    -3.747000000    -6.828000000
H    -5.929000000    -3.444000000    -5.345000000
O    -0.931000000    -2.782000000    -1.499000000
H    -0.806000000    -2.006000000    -0.953000000
H    -0.046000000    -3.035000000    -1.762000000
O    -6.440000000     5.998000000    -4.336000000
H    -5.760000000     5.348000000    -4.162000000
H    -6.602000000     5.928000000    -5.277000000
O    -4.814000000     3.006000000    -4.601000000
H    -4.075000000     3.594000000    -4.759000000
H    -4.410000000     2.174000000    -4.354000000
O    -6.139000000     0.021000000    -4.670000000
H    -5.337000000     0.213000000    -4.183000000
H    -6.426000000    -0.828000000    -4.333000000
