215
-1458.79044
C     1.341000000    -3.459000000    -2.813000000
H     1.235000000    -3.836000000    -1.799000000
C     2.282000000    -2.449000000    -2.986000000
C     2.429000000    -1.822000000    -4.243000000
H     3.177000000    -1.035000000    -4.296000000
C     3.115000000    -1.910000000    -1.836000000
O     3.510000000    -3.099000000    -1.048000000
H     2.472000000    -1.207000000    -1.286000000
O     4.295000000    -1.124000000    -2.267000000
C     4.444000000     0.007000000    -1.490000000
C     4.072000000     1.240000000    -2.024000000
H     3.818000000     1.253000000    -3.081000000
C     3.988000000     2.381000000    -1.235000000
O     3.286000000     3.444000000    -1.813000000
C     4.304000000     2.342000000     0.090000000
C     4.221000000     3.581000000     0.973000000
H     4.947000000     3.546000000     1.788000000
C     2.897000000     3.802000000     1.706000000
C     2.723000000     3.333000000     3.045000000
H     3.539000000     2.834000000     3.562000000
H     4.431000000     4.463000000     0.364000000
C     4.956000000     1.219000000     0.600000000
H     5.251000000     1.120000000     1.641000000
C     4.950000000    -0.007000000    -0.149000000
C     5.290000000    -1.333000000     0.473000000
H     6.031000000    -1.050000000     1.224000000
H     5.898000000    -1.954000000    -0.188000000
C     4.131000000    -2.131000000     1.106000000
C     3.873000000    -2.025000000     2.445000000
H     4.538000000    -1.373000000     3.006000000
C     3.431000000    -3.017000000     0.361000000
C     2.424000000    -3.736000000     1.010000000
H     1.830000000    -4.469000000     0.470000000
C     2.183000000    -3.644000000     2.382000000
O     1.025000000    -4.290000000     2.782000000
C    -0.179000000    -3.415000000     2.880000000
C    -1.403000000    -4.239000000     2.358000000
C    -2.676000000    -3.883000000     2.773000000
H    -2.848000000    -3.064000000     3.467000000
C    -1.277000000    -5.219000000     1.335000000
H    -0.291000000    -5.454000000     0.943000000
O    -0.336000000    -2.920000000     4.223000000
H     0.088000000    -2.540000000     2.269000000
C     2.853000000    -2.716000000     3.136000000
C     2.483000000    -2.375000000     4.620000000
H     3.330000000    -1.909000000     5.129000000
H     2.123000000    -3.248000000     5.168000000
C     1.399000000    -1.309000000     4.608000000
C     1.715000000     0.048000000     4.596000000
H     2.784000000     0.245000000     4.606000000
C     0.091000000    -1.658000000     4.453000000
C    -0.872000000    -0.668000000     4.338000000
H    -1.867000000    -1.050000000     4.127000000
C    -0.563000000     0.664000000     4.322000000
O    -1.646000000     1.520000000     4.109000000
C    -1.577000000     2.374000000     2.890000000
C    -3.026000000     2.585000000     2.506000000
C    -3.890000000     1.469000000     2.655000000
H    -3.558000000     0.544000000     3.119000000
C    -3.455000000     3.656000000     1.765000000
H    -2.840000000     4.543000000     1.637000000
O    -0.875000000     3.579000000     3.257000000
H    -0.983000000     1.809000000     2.156000000
C     0.763000000     1.040000000     4.537000000
C     1.235000000     2.428000000     4.755000000
H     2.189000000     2.379000000     5.285000000
H     0.404000000     2.924000000     5.261000000
C     1.453000000     3.283000000     3.511000000
C     0.400000000     3.831000000     2.823000000
C     0.650000000     4.576000000     1.669000000
H    -0.259000000     4.906000000     1.172000000
C     1.884000000     4.474000000     1.040000000
O     1.984000000     4.796000000    -0.316000000
C     1.956000000     3.709000000    -1.268000000
H     1.497000000     2.803000000    -0.845000000
C     0.963000000     3.878000000    -2.400000000
C     1.225000000     3.267000000    -3.619000000
H     2.021000000     2.533000000    -3.712000000
C    -0.161000000     4.620000000    -2.173000000
H    -0.428000000     5.020000000    -1.199000000
C    -1.068000000     4.754000000    -3.237000000
O    -1.973000000     5.756000000    -3.190000000
C    -0.828000000     4.237000000    -4.430000000
H    -1.593000000     4.267000000    -5.202000000
C     0.340000000     3.484000000    -4.691000000
O     0.448000000     2.904000000    -5.937000000
C     1.346000000     1.973000000    -6.368000000
C     1.138000000     0.664000000    -6.175000000
H     0.364000000     0.353000000    -5.477000000
C     2.312000000     2.318000000    -7.345000000
H     2.512000000     3.376000000    -7.492000000
C     3.193000000     1.396000000    -7.883000000
H     4.001000000     1.815000000    -8.477000000
C     3.012000000     0.024000000    -7.619000000
H     3.706000000    -0.729000000    -7.985000000
C     1.997000000    -0.288000000    -6.743000000
O     1.722000000    -1.600000000    -6.498000000
C     1.591000000    -2.194000000    -5.263000000
C     0.589000000    -3.119000000    -5.108000000
H    -0.081000000    -3.371000000    -5.926000000
C     0.463000000    -3.672000000    -3.853000000
O    -0.535000000    -4.592000000    -3.710000000
C    -0.505000000    -5.770000000    -2.932000000
C    -1.407000000    -5.876000000    -1.934000000
H    -2.008000000    -5.000000000    -1.705000000
C     0.310000000    -6.871000000    -3.292000000
H     0.912000000    -6.827000000    -4.196000000
C     0.287000000    -8.042000000    -2.504000000
H     0.910000000    -8.915000000    -2.680000000
C    -0.589000000    -8.108000000    -1.409000000
H    -0.673000000    -9.054000000    -0.881000000
C    -1.424000000    -6.992000000    -1.080000000
O    -2.328000000    -7.072000000     0.031000000
C    -2.425000000    -6.019000000     0.961000000
C    -3.676000000    -5.691000000     1.435000000
H    -4.550000000    -6.204000000     1.043000000
C    -3.775000000    -4.629000000     2.367000000
O    -4.994000000    -4.403000000     2.833000000
C    -5.408000000    -3.081000000     3.248000000
C    -5.436000000    -2.025000000     2.331000000
H    -5.252000000    -2.180000000     1.271000000
C    -5.610000000    -2.830000000     4.576000000
H    -5.420000000    -3.699000000     5.202000000
C    -5.932000000    -1.594000000     5.062000000
H    -5.961000000    -1.466000000     6.141000000
C    -6.143000000    -0.511000000     4.151000000
H    -6.505000000     0.453000000     4.500000000
C    -5.779000000    -0.755000000     2.822000000
O    -5.850000000     0.338000000     1.962000000
C    -5.125000000     1.462000000     2.051000000
C    -5.468000000     2.504000000     1.239000000
H    -6.464000000     2.473000000     0.804000000
C    -4.664000000     3.575000000     1.091000000
O    -5.103000000     4.607000000     0.241000000
C    -4.239000000     5.511000000    -0.341000000
C    -4.091000000     6.836000000     0.200000000
H    -4.634000000     7.160000000     1.084000000
C    -3.227000000     7.769000000    -0.400000000
H    -3.034000000     8.774000000    -0.033000000
C    -2.516000000     7.367000000    -1.541000000
H    -1.840000000     8.075000000    -2.015000000
C    -2.606000000     6.050000000    -2.014000000
C    -3.612000000     5.204000000    -1.524000000
H    -3.634000000     4.234000000    -2.014000000
C    -0.919000000     0.994000000    -1.737000000
H    -0.733000000     1.501000000    -2.680000000
C     0.193000000     0.451000000    -1.069000000
H     1.142000000     0.702000000    -1.536000000
C     0.001000000    -0.269000000     0.116000000
H     0.787000000    -0.688000000     0.632000000
C    -1.260000000    -0.475000000     0.561000000
H    -1.481000000    -0.948000000     1.515000000
C    -2.367000000     0.022000000    -0.163000000
H    -3.397000000    -0.123000000     0.151000000
C    -2.219000000     0.775000000    -1.314000000
C    -3.464000000     1.082000000    -2.218000000
O    -4.582000000     0.741000000    -1.991000000
O    -3.263000000     1.732000000    -3.176000000
O    -2.125000000    -1.799000000    -7.554000000
H    -1.734000000    -1.052000000    -7.101000000
H    -2.856000000    -1.424000000    -8.046000000
O    -7.411000000    -0.035000000    -0.975000000
H    -7.334000000    -0.936000000    -1.288000000
H    -6.509000000     0.280000000    -0.928000000
O    -6.231000000     2.907000000    -2.605000000
H    -5.562000000     2.265000000    -2.368000000
H    -5.866000000     3.747000000    -2.327000000
O    -3.388000000     5.063000000    -6.866000000
H    -4.015000000     4.598000000    -6.313000000
H    -2.840000000     4.372000000    -7.239000000
O    -2.798000000    -1.468000000    -3.946000000
H    -3.697000000    -1.643000000    -3.667000000
H    -2.587000000    -2.189000000    -4.539000000
O    -4.829000000    -4.281000000    -1.566000000
H    -4.077000000    -3.847000000    -1.164000000
H    -5.368000000    -3.564000000    -1.903000000
O    -5.222000000    -1.731000000    -2.681000000
H    -4.931000000    -0.843000000    -2.477000000
H    -6.000000000    -1.609000000    -3.226000000
O    -4.715000000     0.914000000    -6.413000000
H    -4.364000000     0.757000000    -7.290000000
H    -4.017000000     0.630000000    -5.822000000
O    -2.104000000     2.760000000    -7.573000000
H    -1.955000000     2.250000000    -6.777000000
H    -1.229000000     2.895000000    -7.937000000
O    -6.714000000     1.619000000    -7.831000000
H    -6.927000000     0.858000000    -8.370000000
H    -6.055000000     1.300000000    -7.215000000
O    -5.381000000     6.380000000    -4.470000000
H    -4.784000000     7.004000000    -4.882000000
H    -4.968000000     5.527000000    -4.607000000
O    -9.564000000     0.185000000    -4.373000000
H    -8.646000000    -0.011000000    -4.558000000
H    -9.542000000     1.026000000    -3.915000000
O    -8.191000000    -2.453000000    -2.930000000
H    -8.422000000    -3.175000000    -3.514000000
H    -8.650000000    -1.695000000    -3.294000000
O    -2.109000000     0.774000000    -5.426000000
H    -2.364000000     1.259000000    -4.641000000
H    -2.150000000    -0.145000000    -5.164000000
O    -8.813000000     2.971000000    -3.538000000
H    -8.655000000     3.029000000    -4.480000000
H    -7.944000000     3.045000000    -3.144000000
O    -3.009000000    -3.866000000    -5.105000000
H    -2.824000000    -4.310000000    -5.933000000
H    -2.881000000    -4.540000000    -4.438000000
O    -2.705000000    -2.653000000    -1.102000000
H    -2.316000000    -2.038000000    -1.723000000
H    -2.350000000    -2.392000000    -0.252000000
O    -4.563000000     3.402000000    -4.764000000
H    -5.441000000     3.214000000    -4.431000000
H    -3.984000000     2.855000000    -4.233000000
O    -6.429000000     0.192000000    -4.242000000
H    -6.150000000     0.652000000    -3.451000000
H    -5.824000000     0.492000000    -4.920000000
