215
-1467.31899
C     2.364000000    -2.689000000    -4.012000000
H     2.651000000    -3.561000000    -3.430000000
C     2.722000000    -1.489000000    -3.477000000
C     2.197000000    -0.322000000    -4.124000000
H     2.319000000     0.677000000    -3.714000000
C     3.509000000    -1.328000000    -2.159000000
O     4.092000000    -2.606000000    -1.713000000
H     2.776000000    -1.083000000    -1.375000000
O     4.520000000    -0.321000000    -2.264000000
C     4.500000000     0.577000000    -1.210000000
C     3.873000000     1.829000000    -1.404000000
H     3.520000000     2.070000000    -2.403000000
C     3.719000000     2.684000000    -0.329000000
O     2.993000000     3.827000000    -0.542000000
C     4.106000000     2.356000000     0.985000000
C     3.877000000     3.284000000     2.136000000
H     4.735000000     3.191000000     2.806000000
C     2.525000000     3.227000000     2.845000000
C     2.394000000     2.335000000     3.931000000
H     3.251000000     1.792000000     4.321000000
H     3.977000000     4.333000000     1.849000000
C     4.751000000     1.136000000     1.189000000
H     5.058000000     0.812000000     2.180000000
C     4.984000000     0.261000000     0.092000000
C     5.483000000    -1.131000000     0.398000000
H     6.156000000    -1.053000000     1.254000000
H     6.101000000    -1.568000000    -0.390000000
C     4.385000000    -2.240000000     0.638000000
C     3.966000000    -2.503000000     1.934000000
H     4.397000000    -1.995000000     2.793000000
C     3.868000000    -2.940000000    -0.397000000
C     2.879000000    -3.894000000    -0.202000000
H     2.514000000    -4.550000000    -0.989000000
C     2.427000000    -4.130000000     1.082000000
O     1.215000000    -4.732000000     1.242000000
C    -0.019000000    -4.021000000     1.465000000
C    -1.191000000    -4.509000000     0.581000000
C    -2.393000000    -3.847000000     0.716000000
H    -2.464000000    -3.150000000     1.547000000
C    -0.847000000    -5.178000000    -0.640000000
H     0.168000000    -5.541000000    -0.775000000
O    -0.311000000    -3.957000000     2.926000000
H     0.114000000    -3.009000000     1.054000000
C     3.005000000    -3.468000000     2.198000000
C     2.542000000    -3.591000000     3.629000000
H     3.324000000    -3.544000000     4.390000000
H     2.081000000    -4.564000000     3.811000000
C     1.382000000    -2.606000000     3.950000000
C     1.642000000    -1.390000000     4.524000000
H     2.666000000    -1.076000000     4.707000000
C     0.048000000    -2.874000000     3.660000000
C    -0.990000000    -1.996000000     3.933000000
H    -2.038000000    -2.233000000     3.773000000
C    -0.690000000    -0.769000000     4.494000000
O    -1.752000000     0.047000000     4.807000000
C    -1.893000000     1.221000000     3.921000000
C    -3.399000000     1.433000000     3.592000000
C    -4.309000000     0.444000000     3.612000000
H    -4.108000000    -0.502000000     4.109000000
C    -3.746000000     2.652000000     2.967000000
H    -2.997000000     3.434000000     2.876000000
O    -1.323000000     2.445000000     4.347000000
H    -1.400000000     1.008000000     2.961000000
C     0.591000000    -0.408000000     4.687000000
C     0.906000000     0.967000000     5.412000000
H     1.683000000     0.771000000     6.154000000
H    -0.010000000     1.124000000     5.986000000
C     1.102000000     2.069000000     4.420000000
C    -0.028000000     2.761000000     3.905000000
C     0.096000000     3.598000000     2.837000000
H    -0.786000000     4.072000000     2.413000000
C     1.372000000     3.774000000     2.228000000
O     1.479000000     4.567000000     1.110000000
C     1.601000000     3.877000000    -0.077000000
H     1.442000000     2.801000000     0.090000000
C     0.643000000     4.395000000    -1.173000000
C     1.020000000     4.481000000    -2.515000000
H     1.999000000     4.092000000    -2.783000000
C    -0.662000000     4.794000000    -0.822000000
H    -0.962000000     4.784000000     0.222000000
C    -1.503000000     5.355000000    -1.777000000
O    -2.793000000     5.827000000    -1.438000000
C    -1.097000000     5.475000000    -3.061000000
H    -1.838000000     5.742000000    -3.811000000
C     0.146000000     4.993000000    -3.424000000
O     0.611000000     5.307000000    -4.663000000
C     1.345000000     4.348000000    -5.200000000
C     0.844000000     3.055000000    -5.363000000
H    -0.144000000     2.869000000    -4.949000000
C     2.592000000     4.650000000    -5.744000000
H     2.932000000     5.681000000    -5.787000000
C     3.393000000     3.625000000    -6.328000000
H     4.358000000     3.968000000    -6.690000000
C     2.840000000     2.293000000    -6.372000000
H     3.355000000     1.496000000    -6.901000000
C     1.544000000     1.964000000    -5.873000000
O     0.992000000     0.721000000    -6.065000000
C     1.424000000    -0.368000000    -5.335000000
C     1.150000000    -1.587000000    -5.922000000
H     0.630000000    -1.686000000    -6.871000000
C     1.590000000    -2.766000000    -5.238000000
O     1.271000000    -3.993000000    -5.770000000
C     0.872000000    -5.078000000    -5.126000000
C    -0.082000000    -4.983000000    -4.148000000
H    -0.390000000    -4.033000000    -3.718000000
C     1.180000000    -6.334000000    -5.625000000
H     1.813000000    -6.445000000    -6.502000000
C     0.722000000    -7.470000000    -4.964000000
H     0.931000000    -8.420000000    -5.450000000
C    -0.210000000    -7.392000000    -3.953000000
H    -0.579000000    -8.297000000    -3.477000000
C    -0.615000000    -6.080000000    -3.572000000
O    -1.768000000    -6.030000000    -2.796000000
C    -1.847000000    -5.329000000    -1.614000000
C    -3.094000000    -4.741000000    -1.401000000
H    -3.827000000    -4.778000000    -2.203000000
C    -3.381000000    -4.021000000    -0.240000000
O    -4.723000000    -3.520000000    -0.040000000
C    -5.157000000    -3.238000000     1.250000000
C    -5.680000000    -1.998000000     1.522000000
H    -5.756000000    -1.302000000     0.690000000
C    -5.123000000    -4.243000000     2.212000000
H    -4.810000000    -5.268000000     2.030000000
C    -5.545000000    -3.887000000     3.486000000
H    -5.463000000    -4.690000000     4.215000000
C    -6.069000000    -2.626000000     3.775000000
H    -6.375000000    -2.425000000     4.799000000
C    -6.150000000    -1.701000000     2.816000000
O    -6.613000000    -0.450000000     3.107000000
C    -5.657000000     0.633000000     3.163000000
C    -6.007000000     1.887000000     2.665000000
H    -7.026000000     1.923000000     2.289000000
C    -5.020000000     2.881000000     2.444000000
O    -5.441000000     4.072000000     2.115000000
C    -4.605000000     5.022000000     1.593000000
C    -4.497000000     6.201000000     2.284000000
H    -5.126000000     6.362000000     3.155000000
C    -3.627000000     7.248000000     1.823000000
H    -3.470000000     8.163000000     2.389000000
C    -2.934000000     7.063000000     0.608000000
H    -2.323000000     7.868000000     0.208000000
C    -3.318000000     5.947000000    -0.168000000
C    -4.056000000     4.885000000     0.342000000
H    -4.137000000     3.968000000    -0.237000000
C    -1.451000000     1.125000000    -1.412000000
H    -1.597000000     1.916000000    -2.143000000
C    -0.165000000     0.756000000    -1.026000000
H     0.778000000     1.021000000    -1.498000000
C    -0.124000000    -0.095000000     0.082000000
H     0.828000000    -0.345000000     0.485000000
C    -1.264000000    -0.517000000     0.694000000
H    -1.166000000    -1.209000000     1.527000000
C    -2.520000000    -0.219000000     0.232000000
H    -3.376000000    -0.615000000     0.772000000
C    -2.642000000     0.675000000    -0.873000000
C    -3.998000000     1.092000000    -1.374000000
O    -4.924000000     0.309000000    -1.335000000
O    -4.071000000     2.154000000    -2.003000000
O    -9.077000000    -2.873000000    -2.038000000
H    -8.202000000    -2.503000000    -2.154000000
H    -9.646000000    -2.111000000    -1.929000000
O    -6.545000000     2.463000000    -0.494000000
H    -5.950000000     1.791000000    -0.827000000
H    -6.109000000     2.803000000     0.288000000
O    -3.973000000     5.085000000    -5.899000000
H    -4.129000000     5.115000000    -4.955000000
H    -4.737000000     4.632000000    -6.254000000
O    -6.722000000    -1.494000000    -6.547000000
H    -6.772000000    -2.446000000    -6.467000000
H    -6.194000000    -1.218000000    -5.797000000
O    -2.243000000    -2.137000000    -7.014000000
H    -2.168000000    -1.222000000    -6.745000000
H    -3.036000000    -2.165000000    -7.550000000
O    -8.541000000     0.562000000    -0.144000000
H    -8.829000000     0.624000000    -1.055000000
H    -7.830000000     1.200000000    -0.074000000
O    -6.386000000    -1.859000000    -1.991000000
H    -5.717000000    -2.508000000    -1.773000000
H    -5.932000000    -1.018000000    -1.930000000
O    -9.200000000    -2.213000000     0.858000000
H    -9.292000000    -2.592000000    -0.016000000
H    -8.651000000    -1.439000000     0.727000000
O    -8.855000000     0.377000000    -3.393000000
H    -9.005000000     1.057000000    -4.050000000
H    -7.932000000     0.145000000    -3.495000000
O    -7.658000000     3.076000000    -2.904000000
H    -7.510000000     2.199000000    -3.257000000
H    -7.134000000     3.103000000    -2.103000000
O    -2.853000000     2.530000000    -4.873000000
H    -3.338000000     2.531000000    -4.048000000
H    -2.977000000     3.411000000    -5.225000000
O    -4.898000000     1.027000000    -6.366000000
H    -5.573000000     1.593000000    -6.742000000
H    -4.193000000     1.625000000    -6.121000000
O    -1.843000000     0.057000000    -4.882000000
H    -2.345000000     0.828000000    -4.621000000
H    -1.131000000     0.405000000    -5.420000000
O    -3.302000000    -3.301000000    -4.532000000
H    -2.723000000    -2.976000000    -3.841000000
H    -2.907000000    -2.983000000    -5.344000000
O    -1.616000000    -1.808000000    -2.984000000
H    -1.617000000    -1.489000000    -2.082000000
H    -1.709000000    -1.019000000    -3.518000000
O    -7.437000000     5.401000000    -4.435000000
H    -6.812000000     5.392000000    -5.160000000
H    -7.305000000     4.561000000    -3.995000000
O    -4.730000000     4.238000000    -3.311000000
H    -4.541000000     3.431000000    -2.832000000
H    -5.318000000     4.727000000    -2.735000000
O    -6.268000000     6.478000000    -2.069000000
H    -6.560000000     6.543000000    -1.159000000
H    -7.071000000     6.322000000    -2.567000000
O    -6.114000000     0.753000000    -3.928000000
H    -5.297000000     0.728000000    -3.429000000
H    -5.849000000     1.020000000    -4.808000000
