215
-1436.27579
C    -1.481000000     0.033000000    -4.061000000
H    -0.813000000    -0.724000000    -3.658000000
C    -1.116000000     1.339000000    -4.107000000
C    -2.109000000     2.287000000    -4.423000000
H    -1.830000000     3.337000000    -4.404000000
C     0.295000000     1.726000000    -3.781000000
O     1.281000000     0.885000000    -4.459000000
H     0.372000000     1.563000000    -2.696000000
O     0.601000000     3.137000000    -4.041000000
C     1.125000000     3.699000000    -2.876000000
C     0.209000000     4.186000000    -1.892000000
H    -0.870000000     4.213000000    -2.020000000
C     0.710000000     4.685000000    -0.731000000
O    -0.194000000     5.098000000     0.240000000
C     2.031000000     4.583000000    -0.389000000
C     2.585000000     4.884000000     0.992000000
H     3.577000000     5.339000000     0.987000000
C     2.451000000     3.644000000     1.876000000
C     3.565000000     2.826000000     2.232000000
H     4.486000000     3.043000000     1.696000000
H     2.080000000     5.736000000     1.453000000
C     2.929000000     3.990000000    -1.308000000
H     3.965000000     3.900000000    -0.993000000
C     2.462000000     3.587000000    -2.535000000
C     3.402000000     2.870000000    -3.548000000
H     4.351000000     3.394000000    -3.413000000
H     3.011000000     3.100000000    -4.541000000
C     3.437000000     1.349000000    -3.389000000
C     4.460000000     0.819000000    -2.599000000
H     5.068000000     1.579000000    -2.116000000
C     2.520000000     0.483000000    -3.935000000
C     2.601000000    -0.921000000    -3.773000000
H     1.747000000    -1.576000000    -3.927000000
C     3.547000000    -1.418000000    -2.889000000
O     3.349000000    -2.714000000    -2.598000000
C     2.653000000    -3.086000000    -1.346000000
C     1.583000000    -4.161000000    -1.556000000
C     1.149000000    -4.888000000    -0.394000000
H     1.547000000    -4.707000000     0.601000000
C     1.128000000    -4.448000000    -2.811000000
H     1.417000000    -3.844000000    -3.668000000
O     3.645000000    -3.523000000    -0.415000000
H     2.122000000    -2.226000000    -0.912000000
C     4.436000000    -0.529000000    -2.199000000
C     5.380000000    -1.097000000    -1.184000000
H     6.245000000    -0.450000000    -1.024000000
H     5.734000000    -2.021000000    -1.645000000
C     4.861000000    -1.429000000     0.188000000
C     4.967000000    -0.376000000     1.125000000
H     5.515000000     0.533000000     0.888000000
C     4.116000000    -2.605000000     0.553000000
C     3.513000000    -2.646000000     1.788000000
H     2.793000000    -3.421000000     2.038000000
C     3.589000000    -1.564000000     2.682000000
O     2.867000000    -1.563000000     3.853000000
C     1.582000000    -0.842000000     3.782000000
C     0.393000000    -1.617000000     4.223000000
C     0.457000000    -3.046000000     4.391000000
H     1.364000000    -3.637000000     4.292000000
C    -0.912000000    -1.098000000     4.292000000
H    -1.040000000    -0.034000000     4.111000000
O     1.780000000     0.469000000     4.433000000
H     1.373000000    -0.615000000     2.726000000
C     4.391000000    -0.445000000     2.325000000
C     4.436000000     0.703000000     3.291000000
H     5.425000000     1.164000000     3.341000000
H     4.322000000     0.295000000     4.298000000
C     3.360000000     1.721000000     3.034000000
C     2.054000000     1.455000000     3.599000000
C     1.008000000     2.314000000     3.403000000
H     0.067000000     2.205000000     3.934000000
C     1.181000000     3.349000000     2.499000000
O     0.048000000     4.113000000     2.381000000
C    -0.671000000     4.041000000     1.121000000
H    -0.573000000     3.041000000     0.672000000
C    -2.161000000     4.183000000     1.436000000
C    -3.090000000     4.144000000     0.448000000
H    -2.791000000     4.280000000    -0.588000000
C    -2.653000000     4.011000000     2.768000000
H    -1.933000000     3.916000000     3.577000000
C    -3.989000000     3.885000000     3.080000000
O    -4.315000000     3.647000000     4.416000000
C    -4.869000000     3.875000000     2.031000000
H    -5.892000000     3.736000000     2.371000000
C    -4.458000000     4.108000000     0.705000000
O    -5.463000000     4.236000000    -0.258000000
C    -5.202000000     4.546000000    -1.539000000
C    -5.045000000     3.526000000    -2.520000000
H    -5.267000000     2.510000000    -2.207000000
C    -4.977000000     5.852000000    -1.900000000
H    -4.956000000     6.634000000    -1.145000000
C    -4.686000000     6.247000000    -3.200000000
H    -4.614000000     7.310000000    -3.418000000
C    -4.431000000     5.283000000    -4.169000000
H    -3.965000000     5.569000000    -5.108000000
C    -4.603000000     3.898000000    -3.801000000
O    -4.422000000     2.826000000    -4.674000000
C    -3.437000000     1.923000000    -4.643000000
C    -3.718000000     0.582000000    -4.620000000
H    -4.746000000     0.259000000    -4.766000000
C    -2.740000000    -0.352000000    -4.398000000
O    -3.007000000    -1.721000000    -4.376000000
C    -2.238000000    -2.629000000    -5.026000000
C    -1.714000000    -3.674000000    -4.200000000
H    -1.946000000    -3.755000000    -3.141000000
C    -2.107000000    -2.645000000    -6.405000000
H    -2.678000000    -1.927000000    -6.989000000
C    -1.452000000    -3.643000000    -7.033000000
H    -1.452000000    -3.778000000    -8.111000000
C    -0.842000000    -4.650000000    -6.239000000
H    -0.302000000    -5.465000000    -6.713000000
C    -0.983000000    -4.672000000    -4.837000000
O    -0.369000000    -5.707000000    -4.193000000
C     0.215000000    -5.475000000    -2.953000000
C    -0.125000000    -6.296000000    -1.848000000
H    -0.752000000    -7.175000000    -1.981000000
C     0.310000000    -6.017000000    -0.562000000
O     0.004000000    -6.917000000     0.383000000
C     0.307000000    -6.850000000     1.708000000
C    -0.240000000    -5.873000000     2.536000000
H    -1.003000000    -5.178000000     2.196000000
C     1.270000000    -7.728000000     2.156000000
H     1.709000000    -8.394000000     1.417000000
C     1.752000000    -7.664000000     3.480000000
H     2.558000000    -8.349000000     3.731000000
C     1.154000000    -6.775000000     4.318000000
H     1.412000000    -6.864000000     5.370000000
C     0.138000000    -5.911000000     3.902000000
O    -0.512000000    -5.121000000     4.800000000
C    -0.700000000    -3.762000000     4.620000000
C    -1.942000000    -3.131000000     4.781000000
H    -2.807000000    -3.749000000     5.010000000
C    -2.060000000    -1.797000000     4.582000000
O    -3.278000000    -1.136000000     4.689000000
C    -3.429000000     0.132000000     5.214000000
C    -2.913000000     0.367000000     6.498000000
H    -2.494000000    -0.476000000     7.041000000
C    -2.948000000     1.589000000     7.103000000
H    -2.467000000     1.719000000     8.069000000
C    -3.364000000     2.657000000     6.315000000
H    -3.172000000     3.679000000     6.632000000
C    -3.871000000     2.507000000     5.058000000
C    -3.952000000     1.201000000     4.514000000
H    -4.359000000     0.902000000     3.551000000
C    -0.680000000    -1.700000000     0.826000000
H    -0.432000000    -2.691000000     1.198000000
C     0.313000000    -0.735000000     0.577000000
H     1.356000000    -0.986000000     0.750000000
C     0.025000000     0.486000000    -0.032000000
H     0.833000000     1.044000000    -0.454000000
C    -1.318000000     0.758000000    -0.369000000
H    -1.567000000     1.759000000    -0.712000000
C    -2.343000000    -0.154000000    -0.045000000
H    -3.398000000     0.078000000    -0.173000000
C    -2.070000000    -1.486000000     0.441000000
C    -3.078000000    -2.517000000     0.727000000
O    -4.186000000    -2.267000000     0.243000000
O    -2.816000000    -3.580000000     1.210000000
O    -2.704000000    -6.054000000     0.144000000
H    -1.827000000    -5.903000000    -0.209000000
H    -2.953000000    -5.215000000     0.532000000
O    -6.847000000    -4.237000000    -3.458000000
H    -6.420000000    -3.877000000    -2.681000000
H    -7.748000000    -4.403000000    -3.181000000
O    -8.258000000     0.853000000     1.211000000
H    -8.340000000     0.678000000     2.148000000
H    -7.489000000     0.351000000     0.940000000
O    -4.889000000    -6.336000000    -4.957000000
H    -4.361000000    -6.127000000    -4.187000000
H    -5.727000000    -5.902000000    -4.800000000
O    -5.823000000    -7.252000000     2.384000000
H    -6.168000000    -7.401000000     3.265000000
H    -4.874000000    -7.203000000     2.503000000
O    -5.072000000    -3.809000000     2.485000000
H    -4.359000000    -3.769000000     1.848000000
H    -4.902000000    -4.607000000     2.985000000
O    -5.945000000    -0.432000000     1.141000000
H    -5.235000000    -0.448000000     1.783000000
H    -5.924000000    -1.301000000     0.739000000
O    -2.922000000    -7.970000000     2.478000000
H    -2.179000000    -8.472000000     2.812000000
H    -2.526000000    -7.208000000     2.057000000
O    -7.072000000    -5.738000000     0.494000000
H    -6.412000000    -6.229000000     0.985000000
H    -7.820000000    -6.332000000     0.440000000
O    -4.572000000    -9.211000000    -1.468000000
H    -4.501000000    -8.818000000    -0.598000000
H    -4.295000000   -10.119000000    -1.343000000
O    -8.061000000    -4.015000000     2.455000000
H    -7.909000000    -4.771000000     1.888000000
H    -7.186000000    -3.743000000     2.731000000
O    -5.528000000    -2.251000000     6.394000000
H    -5.527000000    -3.154000000     6.712000000
H    -4.779000000    -2.206000000     5.800000000
O    -7.749000000     0.336000000    -2.514000000
H    -7.110000000    -0.148000000    -1.991000000
H    -7.303000000     0.500000000    -3.346000000
O    -8.207000000    -1.041000000     4.963000000
H    -8.169000000    -0.808000000     5.890000000
H    -7.554000000    -1.734000000     4.863000000
O    -9.213000000    -3.209000000    -1.239000000
H   -10.003000000    -2.769000000    -0.923000000
H    -8.761000000    -3.490000000    -0.444000000
O    -5.272000000    -0.863000000    -2.071000000
H    -4.786000000    -1.168000000    -1.305000000
H    -4.857000000    -1.306000000    -2.811000000
O    -6.510000000    -6.981000000    -2.498000000
H    -5.662000000    -6.614000000    -2.247000000
H    -6.292000000    -7.728000000    -3.057000000
O    -3.903000000    -5.728000000    -2.383000000
H    -4.378000000    -5.028000000    -1.936000000
H    -3.294000000    -6.063000000    -1.725000000
O    -5.702000000    -3.896000000    -0.999000000
H    -5.029000000    -3.484000000    -0.458000000
H    -6.251000000    -4.373000000    -0.377000000
