215
-1479.75884
C     1.717000000    -2.663000000    -4.109000000
H     1.516000000    -3.419000000    -3.355000000
C     2.502000000    -1.585000000    -3.793000000
C     2.552000000    -0.510000000    -4.746000000
H     2.931000000     0.435000000    -4.366000000
C     3.213000000    -1.482000000    -2.416000000
O     3.587000000    -2.747000000    -2.006000000
H     2.550000000    -1.066000000    -1.643000000
O     4.385000000    -0.629000000    -2.469000000
C     4.408000000     0.190000000    -1.373000000
C     3.827000000     1.467000000    -1.548000000
H     3.455000000     1.738000000    -2.533000000
C     3.759000000     2.334000000    -0.473000000
O     3.165000000     3.572000000    -0.740000000
C     4.399000000     1.928000000     0.721000000
C     4.327000000     2.819000000     1.939000000
H     5.081000000     2.632000000     2.706000000
C     2.916000000     2.813000000     2.519000000
C     2.715000000     1.895000000     3.597000000
H     3.514000000     1.317000000     4.054000000
H     4.579000000     3.800000000     1.533000000
C     5.110000000     0.691000000     0.857000000
H     5.594000000     0.419000000     1.791000000
C     5.017000000    -0.207000000    -0.173000000
C     5.436000000    -1.680000000    -0.011000000
H     6.200000000    -1.874000000     0.746000000
H     5.929000000    -2.080000000    -0.900000000
C     4.141000000    -2.486000000     0.319000000
C     3.756000000    -2.632000000     1.644000000
H     4.451000000    -2.261000000     2.394000000
C     3.381000000    -3.098000000    -0.702000000
C     2.273000000    -3.838000000    -0.379000000
H     1.624000000    -4.253000000    -1.146000000
C     1.976000000    -4.139000000     0.974000000
O     0.792000000    -4.791000000     1.113000000
C    -0.352000000    -3.942000000     1.502000000
C    -1.635000000    -4.340000000     0.769000000
C    -2.832000000    -3.867000000     1.252000000
H    -2.914000000    -3.297000000     2.173000000
C    -1.619000000    -4.873000000    -0.525000000
H    -0.658000000    -5.247000000    -0.866000000
O    -0.541000000    -3.967000000     2.895000000
H    -0.069000000    -2.930000000     1.175000000
C     2.707000000    -3.459000000     1.951000000
C     2.314000000    -3.766000000     3.422000000
H     3.189000000    -3.715000000     4.074000000
H     1.896000000    -4.768000000     3.535000000
C     1.308000000    -2.756000000     3.878000000
C     1.805000000    -1.572000000     4.353000000
H     2.864000000    -1.498000000     4.585000000
C    -0.026000000    -2.943000000     3.654000000
C    -0.930000000    -1.935000000     3.978000000
H    -1.982000000    -2.151000000     3.812000000
C    -0.496000000    -0.705000000     4.474000000
O    -1.409000000     0.283000000     4.750000000
C    -1.556000000     1.382000000     3.839000000
C    -2.994000000     1.695000000     3.595000000
C    -4.032000000     0.795000000     3.926000000
H    -3.787000000    -0.148000000     4.407000000
C    -3.321000000     2.849000000     2.879000000
H    -2.560000000     3.585000000     2.631000000
O    -0.799000000     2.551000000     4.250000000
H    -1.135000000     1.049000000     2.878000000
C     0.846000000    -0.570000000     4.770000000
C     1.352000000     0.781000000     5.349000000
H     2.321000000     0.676000000     5.841000000
H     0.578000000     1.157000000     6.022000000
C     1.496000000     1.803000000     4.210000000
C     0.468000000     2.644000000     3.745000000
C     0.639000000     3.470000000     2.670000000
H    -0.249000000     3.977000000     2.300000000
C     1.863000000     3.631000000     1.999000000
O     1.908000000     4.485000000     0.899000000
C     1.852000000     3.775000000    -0.288000000
H     1.480000000     2.763000000    -0.069000000
C     0.956000000     4.530000000    -1.244000000
C     1.276000000     4.431000000    -2.622000000
H     2.190000000     3.888000000    -2.851000000
C    -0.233000000     5.145000000    -0.899000000
H    -0.539000000     5.125000000     0.144000000
C    -1.116000000     5.572000000    -1.938000000
O    -2.357000000     6.162000000    -1.611000000
C    -0.732000000     5.571000000    -3.293000000
H    -1.392000000     6.039000000    -4.019000000
C     0.435000000     4.924000000    -3.606000000
O     0.700000000     4.713000000    -4.974000000
C     1.701000000     3.867000000    -5.440000000
C     1.344000000     2.555000000    -5.851000000
H     0.303000000     2.341000000    -5.623000000
C     2.917000000     4.400000000    -5.714000000
H     3.141000000     5.456000000    -5.588000000
C     3.876000000     3.614000000    -6.421000000
H     4.780000000     4.105000000    -6.773000000
C     3.524000000     2.314000000    -6.745000000
H     4.203000000     1.615000000    -7.226000000
C     2.271000000     1.764000000    -6.516000000
O     1.959000000     0.445000000    -6.843000000
C     1.887000000    -0.565000000    -5.934000000
C     1.265000000    -1.699000000    -6.265000000
H     0.835000000    -1.843000000    -7.253000000
C     1.093000000    -2.767000000    -5.369000000
O     0.334000000    -3.899000000    -5.723000000
C    -0.071000000    -4.830000000    -4.816000000
C    -1.178000000    -4.632000000    -4.017000000
H    -1.694000000    -3.680000000    -4.114000000
C     0.455000000    -6.136000000    -4.910000000
H     1.262000000    -6.221000000    -5.633000000
C    -0.032000000    -7.207000000    -4.168000000
H     0.462000000    -8.175000000    -4.202000000
C    -1.122000000    -7.007000000    -3.318000000
H    -1.598000000    -7.882000000    -2.884000000
C    -1.703000000    -5.770000000    -3.311000000
O    -2.830000000    -5.640000000    -2.492000000
C    -2.840000000    -5.018000000    -1.301000000
C    -3.971000000    -4.490000000    -0.769000000
H    -4.907000000    -4.635000000    -1.302000000
C    -4.000000000    -4.005000000     0.488000000
O    -5.216000000    -3.504000000     0.869000000
C    -5.603000000    -3.058000000     2.147000000
C    -5.864000000    -1.693000000     2.310000000
H    -5.727000000    -0.995000000     1.488000000
C    -5.709000000    -3.947000000     3.272000000
H    -5.613000000    -5.016000000     3.102000000
C    -6.039000000    -3.475000000     4.516000000
H    -5.953000000    -4.038000000     5.443000000
C    -6.201000000    -2.146000000     4.703000000
H    -6.437000000    -1.702000000     5.666000000
C    -6.142000000    -1.281000000     3.634000000
O    -6.342000000     0.063000000     3.835000000
C    -5.346000000     0.943000000     3.534000000
C    -5.649000000     2.062000000     2.750000000
H    -6.586000000     2.203000000     2.216000000
C    -4.654000000     3.007000000     2.417000000
O    -5.025000000     4.119000000     1.604000000
C    -4.171000000     5.132000000     1.362000000
C    -4.022000000     6.214000000     2.228000000
H    -4.499000000     6.108000000     3.199000000
C    -3.308000000     7.334000000     1.780000000
H    -3.212000000     8.146000000     2.496000000
C    -2.729000000     7.380000000     0.457000000
H    -2.151000000     8.271000000     0.226000000
C    -2.870000000     6.255000000    -0.401000000
C    -3.672000000     5.208000000     0.060000000
H    -3.932000000     4.432000000    -0.656000000
C    -0.902000000     1.301000000    -1.876000000
H    -0.936000000     2.010000000    -2.699000000
C     0.313000000     0.643000000    -1.518000000
H     1.175000000     0.722000000    -2.176000000
C     0.424000000    -0.115000000    -0.363000000
H     1.380000000    -0.604000000    -0.155000000
C    -0.518000000    -0.112000000     0.588000000
H    -0.333000000    -0.504000000     1.585000000
C    -1.756000000     0.534000000     0.270000000
H    -2.442000000     0.718000000     1.093000000
C    -1.970000000     1.241000000    -0.957000000
C    -3.368000000     1.775000000    -1.299000000
O    -4.284000000     1.678000000    -0.502000000
O    -3.560000000     2.260000000    -2.410000000
O    -6.751000000    -2.886000000    -1.750000000
H    -6.351000000    -2.237000000    -1.170000000
H    -6.223000000    -2.852000000    -2.548000000
O    -6.281000000     3.564000000    -0.815000000
H    -5.807000000     2.821000000    -1.188000000
H    -5.812000000     3.765000000    -0.005000000
O    -3.038000000     4.849000000    -6.203000000
H    -3.682000000     4.809000000    -5.497000000
H    -3.413000000     5.463000000    -6.834000000
O    -8.559000000     1.444000000    -0.189000000
H    -8.401000000     0.942000000    -0.989000000
H    -7.875000000     2.113000000    -0.188000000
O    -5.659000000    -0.431000000    -1.190000000
H    -5.309000000    -0.600000000    -2.065000000
H    -5.190000000     0.348000000    -0.891000000
O    -8.348000000     1.210000000    -3.034000000
H    -8.408000000     1.659000000    -3.877000000
H    -7.408000000     1.116000000    -2.880000000
O    -6.939000000     4.902000000    -3.058000000
H    -7.799000000     5.240000000    -2.808000000
H    -6.733000000     4.251000000    -2.387000000
O    -2.341000000     2.274000000    -5.242000000
H    -2.785000000     2.344000000    -4.396000000
H    -2.086000000     3.172000000    -5.454000000
O    -5.248000000     0.155000000    -6.496000000
H    -5.510000000    -0.204000000    -7.344000000
H    -4.811000000     0.979000000    -6.709000000
O    -9.895000000     0.102000000     1.777000000
H   -10.767000000     0.415000000     1.536000000
H    -9.317000000     0.465000000     1.106000000
O    -3.784000000     1.928000000    -7.595000000
H    -3.372000000     2.320000000    -6.826000000
H    -3.428000000     2.420000000    -8.335000000
O    -1.539000000    -0.502000000    -5.131000000
H    -2.036000000     0.314000000    -5.186000000
H    -0.623000000    -0.224000000    -5.131000000
O    -4.755000000    -2.296000000    -3.854000000
H    -3.999000000    -2.312000000    -3.267000000
H    -4.594000000    -1.551000000    -4.432000000
O    -2.856000000    -2.628000000    -6.636000000
H    -2.323000000    -2.136000000    -6.011000000
H    -3.097000000    -1.984000000    -7.303000000
O    -2.316000000    -1.382000000    -2.665000000
H    -1.488000000    -1.386000000    -2.186000000
H    -2.072000000    -1.158000000    -3.563000000
O    -5.939000000     7.441000000    -3.244000000
H    -5.801000000     7.220000000    -4.165000000
H    -6.225000000     6.621000000    -2.841000000
O    -4.320000000     4.470000000    -3.654000000
H    -4.074000000     3.698000000    -3.144000000
H    -5.262000000     4.562000000    -3.509000000
O    -5.670000000     8.070000000    -0.299000000
H    -5.069000000     7.732000000    -0.963000000
H    -6.498000000     8.188000000    -0.765000000
O    -5.627000000     1.344000000    -3.652000000
H    -4.735000000     1.586000000    -3.404000000
H    -5.527000000     0.881000000    -4.484000000
