215
-1487.93872
C     2.177000000    -2.389000000    -3.983000000
H     2.432000000    -3.305000000    -3.456000000
C     2.609000000    -1.140000000    -3.489000000
C     2.263000000    -0.021000000    -4.245000000
H     2.726000000     0.931000000    -3.996000000
C     3.476000000    -0.994000000    -2.250000000
O     4.146000000    -2.218000000    -1.866000000
H     2.815000000    -0.695000000    -1.423000000
O     4.373000000     0.134000000    -2.312000000
C     4.378000000     0.940000000    -1.128000000
C     3.753000000     2.188000000    -1.235000000
H     3.389000000     2.528000000    -2.201000000
C     3.503000000     2.929000000    -0.089000000
O     2.700000000     4.029000000    -0.286000000
C     3.959000000     2.503000000     1.171000000
C     3.671000000     3.361000000     2.441000000
H     4.466000000     3.195000000     3.172000000
C     2.302000000     3.112000000     3.035000000
C     2.139000000     2.118000000     4.036000000
H     2.982000000     1.535000000     4.397000000
H     3.739000000     4.392000000     2.089000000
C     4.697000000     1.295000000     1.282000000
H     5.007000000     1.040000000     2.292000000
C     4.888000000     0.539000000     0.126000000
C     5.529000000    -0.822000000     0.261000000
H     6.242000000    -0.860000000     1.087000000
H     6.091000000    -0.999000000    -0.659000000
C     4.471000000    -1.922000000     0.468000000
C     4.021000000    -2.247000000     1.754000000
H     4.402000000    -1.708000000     2.617000000
C     3.919000000    -2.661000000    -0.634000000
C     3.007000000    -3.649000000    -0.431000000
H     2.606000000    -4.187000000    -1.287000000
C     2.568000000    -4.003000000     0.806000000
O     1.484000000    -4.882000000     1.004000000
C     0.246000000    -4.116000000     1.104000000
C    -0.834000000    -4.648000000     0.240000000
C    -2.191000000    -4.244000000     0.407000000
H    -2.509000000    -3.446000000     1.073000000
C    -0.561000000    -5.548000000    -0.826000000
H     0.463000000    -5.897000000    -0.925000000
O    -0.202000000    -4.144000000     2.465000000
H     0.386000000    -3.072000000     0.789000000
C     3.092000000    -3.302000000     1.930000000
C     2.538000000    -3.567000000     3.359000000
H     3.343000000    -3.510000000     4.095000000
H     2.184000000    -4.592000000     3.484000000
C     1.396000000    -2.679000000     3.649000000
C     1.623000000    -1.461000000     4.284000000
H     2.658000000    -1.154000000     4.411000000
C     0.101000000    -3.122000000     3.363000000
C    -0.952000000    -2.290000000     3.767000000
H    -1.964000000    -2.590000000     3.508000000
C    -0.732000000    -1.021000000     4.270000000
O    -1.867000000    -0.264000000     4.469000000
C    -1.983000000     0.908000000     3.675000000
C    -3.336000000     1.118000000     3.105000000
C    -4.206000000     0.035000000     2.956000000
H    -3.798000000    -0.950000000     3.169000000
C    -3.748000000     2.382000000     2.674000000
H    -3.005000000     3.167000000     2.791000000
O    -1.470000000     2.045000000     4.430000000
H    -1.268000000     0.723000000     2.860000000
C     0.566000000    -0.621000000     4.646000000
C     0.742000000     0.587000000     5.455000000
H     1.663000000     0.488000000     6.034000000
H    -0.063000000     0.780000000     6.166000000
C     0.881000000     1.818000000     4.509000000
C    -0.251000000     2.533000000     4.014000000
C    -0.056000000     3.554000000     3.049000000
H    -0.895000000     3.955000000     2.485000000
C     1.188000000     3.843000000     2.564000000
O     1.306000000     4.703000000     1.546000000
C     1.362000000     4.077000000     0.224000000
H     0.949000000     3.058000000     0.186000000
C     0.438000000     4.861000000    -0.708000000
C     0.749000000     4.907000000    -2.092000000
H     1.534000000     4.208000000    -2.367000000
C    -0.706000000     5.494000000    -0.224000000
H    -0.899000000     5.534000000     0.845000000
C    -1.585000000     6.074000000    -1.167000000
O    -2.705000000     6.744000000    -0.748000000
C    -1.345000000     6.069000000    -2.510000000
H    -2.110000000     6.501000000    -3.150000000
C    -0.185000000     5.387000000    -2.984000000
O    -0.007000000     5.317000000    -4.339000000
C     0.926000000     4.441000000    -4.866000000
C     0.639000000     3.098000000    -5.012000000
H    -0.168000000     2.557000000    -4.525000000
C     2.107000000     5.035000000    -5.335000000
H     2.215000000     6.116000000    -5.299000000
C     2.931000000     4.229000000    -6.061000000
H     3.782000000     4.720000000    -6.526000000
C     2.586000000     2.890000000    -6.356000000
H     3.192000000     2.251000000    -6.994000000
C     1.417000000     2.322000000    -5.808000000
O     1.159000000     1.003000000    -6.192000000
C     1.504000000    -0.079000000    -5.406000000
C     1.175000000    -1.351000000    -5.976000000
H     0.630000000    -1.439000000    -6.912000000
C     1.487000000    -2.486000000    -5.200000000
O     1.172000000    -3.748000000    -5.763000000
C     0.996000000    -4.920000000    -5.058000000
C    -0.143000000    -5.096000000    -4.303000000
H    -0.779000000    -4.233000000    -4.121000000
C     2.008000000    -5.881000000    -5.238000000
H     2.927000000    -5.646000000    -5.769000000
C     1.882000000    -7.089000000    -4.672000000
H     2.586000000    -7.917000000    -4.700000000
C     0.715000000    -7.393000000    -3.961000000
H     0.544000000    -8.362000000    -3.500000000
C    -0.309000000    -6.423000000    -3.747000000
O    -1.285000000    -6.714000000    -2.800000000
C    -1.575000000    -5.915000000    -1.748000000
C    -2.906000000    -5.565000000    -1.490000000
H    -3.632000000    -5.809000000    -2.261000000
C    -3.176000000    -4.731000000    -0.456000000
O    -4.535000000    -4.343000000    -0.192000000
C    -4.983000000    -3.961000000     1.003000000
C    -5.461000000    -2.687000000     1.109000000
H    -5.499000000    -2.046000000     0.232000000
C    -4.855000000    -4.773000000     2.069000000
H    -4.460000000    -5.775000000     1.926000000
C    -5.403000000    -4.370000000     3.308000000
H    -5.363000000    -5.042000000     4.162000000
C    -5.927000000    -3.092000000     3.475000000
H    -6.205000000    -2.776000000     4.477000000
C    -5.913000000    -2.223000000     2.324000000
O    -6.325000000    -0.946000000     2.455000000
C    -5.472000000     0.151000000     2.418000000
C    -5.927000000     1.377000000     2.007000000
H    -6.905000000     1.614000000     1.596000000
C    -5.033000000     2.470000000     2.040000000
O    -5.565000000     3.649000000     1.711000000
C    -4.838000000     4.856000000     1.604000000
C    -4.842000000     5.770000000     2.665000000
H    -5.449000000     5.461000000     3.512000000
C    -4.281000000     6.999000000     2.549000000
H    -4.184000000     7.663000000     3.405000000
C    -3.500000000     7.259000000     1.397000000
H    -2.963000000     8.204000000     1.394000000
C    -3.399000000     6.344000000     0.356000000
C    -4.165000000     5.160000000     0.393000000
H    -4.107000000     4.500000000    -0.468000000
C    -0.564000000     1.132000000    -1.627000000
H    -0.223000000     1.600000000    -2.546000000
C     0.353000000     0.736000000    -0.614000000
H     1.424000000     0.925000000    -0.624000000
C    -0.109000000     0.056000000     0.510000000
H     0.543000000    -0.207000000     1.327000000
C    -1.480000000    -0.136000000     0.636000000
H    -1.830000000    -0.671000000     1.515000000
C    -2.367000000     0.436000000    -0.269000000
H    -3.433000000     0.389000000    -0.059000000
C    -1.898000000     1.054000000    -1.425000000
C    -2.831000000     1.696000000    -2.420000000
O    -4.006000000     1.439000000    -2.535000000
O    -2.293000000     2.421000000    -3.318000000
O    -2.549000000     3.344000000    -8.014000000
H    -2.313000000     3.741000000    -8.852000000
H    -2.438000000     4.048000000    -7.376000000
O    -6.205000000    -4.216000000    -2.615000000
H    -5.892000000    -3.886000000    -1.773000000
H    -5.848000000    -3.605000000    -3.260000000
O    -6.381000000     1.262000000    -1.551000000
H    -6.592000000     2.195000000    -1.511000000
H    -5.447000000     1.237000000    -1.759000000
O    -1.992000000     5.356000000    -6.584000000
H    -1.860000000     5.218000000    -5.646000000
H    -1.177000000     5.757000000    -6.884000000
O    -1.427000000     0.844000000    -8.094000000
H    -1.787000000     1.731000000    -8.073000000
H    -1.487000000     0.540000000    -7.188000000
O    -6.409000000    -0.602000000    -4.494000000
H    -6.676000000    -1.059000000    -3.696000000
H    -6.971000000     0.172000000    -4.525000000
O    -3.958000000    -1.444000000    -2.056000000
H    -3.086000000    -1.587000000    -1.687000000
H    -4.054000000    -0.492000000    -2.081000000
O    -4.831000000     1.797000000    -7.751000000
H    -4.972000000     1.647000000    -6.816000000
H    -4.081000000     2.391000000    -7.788000000
O    -7.159000000     3.975000000    -1.498000000
H    -7.872000000     3.666000000    -0.939000000
H    -6.836000000     4.764000000    -1.062000000
O    -1.831000000     0.278000000    -5.513000000
H    -2.261000000     1.045000000    -5.136000000
H    -1.150000000     0.049000000    -4.881000000
O    -7.505000000    -1.402000000    -1.805000000
H    -6.869000000    -0.687000000    -1.814000000
H    -8.348000000    -0.972000000    -1.661000000
O    -8.079000000     5.120000000    -4.033000000
H    -7.458000000     4.730000000    -4.648000000
H    -7.721000000     4.916000000    -3.169000000
O    -3.023000000    -2.144000000    -5.912000000
H    -3.469000000    -2.123000000    -6.759000000
H    -2.610000000    -1.284000000    -5.837000000
O    -7.927000000     1.752000000    -4.391000000
H    -7.551000000     2.099000000    -3.582000000
H    -7.751000000     2.427000000    -5.046000000
O    -3.523000000    -3.630000000    -3.744000000
H    -3.544000000    -2.995000000    -4.459000000
H    -3.126000000    -3.156000000    -3.013000000
O    -1.372000000    -2.433000000    -2.158000000
H    -0.961000000    -2.601000000    -1.310000000
H    -0.770000000    -2.815000000    -2.796000000
O    -4.839000000     6.940000000    -3.204000000
H    -4.928000000     6.148000000    -3.734000000
H    -4.075000000     6.774000000    -2.652000000
O    -4.284000000     4.343000000    -4.599000000
H    -4.025000000     3.661000000    -3.979000000
H    -3.822000000     4.120000000    -5.407000000
O    -4.627000000     1.296000000    -5.169000000
H    -4.216000000     1.560000000    -4.346000000
H    -5.108000000     0.497000000    -4.951000000
