215
-1442.11879
C     3.259000000    -2.300000000    -3.838000000
H     3.404000000    -3.277000000    -3.385000000
C     3.284000000    -1.085000000    -3.116000000
C     3.086000000     0.039000000    -3.797000000
H     3.079000000     0.952000000    -3.208000000
C     3.710000000    -1.024000000    -1.615000000
O     4.378000000    -2.265000000    -1.266000000
H     2.835000000    -0.959000000    -0.951000000
O     4.506000000     0.086000000    -1.359000000
C     4.365000000     0.701000000    -0.153000000
C     3.958000000     1.994000000    -0.242000000
H     3.761000000     2.341000000    -1.253000000
C     3.728000000     2.731000000     0.950000000
O     3.132000000     4.005000000     0.881000000
C     3.885000000     2.145000000     2.230000000
C     3.590000000     2.790000000     3.555000000
H     4.168000000     2.214000000     4.282000000
C     2.071000000     2.509000000     3.806000000
C     1.642000000     1.339000000     4.512000000
H     2.441000000     0.741000000     4.941000000
H     3.916000000     3.832000000     3.556000000
C     4.470000000     0.880000000     2.247000000
H     4.585000000     0.449000000     3.238000000
C     4.704000000     0.175000000     1.053000000
C     5.211000000    -1.247000000     1.186000000
H     5.829000000    -1.420000000     2.070000000
H     5.917000000    -1.495000000     0.391000000
C     4.122000000    -2.294000000     1.131000000
C     3.505000000    -2.858000000     2.275000000
H     3.780000000    -2.474000000     3.255000000
C     3.854000000    -2.839000000    -0.137000000
C     2.775000000    -3.712000000    -0.304000000
H     2.466000000    -3.981000000    -1.311000000
C     2.044000000    -4.173000000     0.758000000
O     0.847000000    -4.796000000     0.517000000
C    -0.388000000    -4.082000000     0.563000000
C    -1.321000000    -4.551000000    -0.623000000
C    -2.687000000    -4.387000000    -0.405000000
H    -2.983000000    -3.971000000     0.554000000
C    -0.825000000    -4.995000000    -1.825000000
H     0.251000000    -5.126000000    -1.905000000
O    -0.993000000    -4.339000000     1.837000000
H    -0.120000000    -3.016000000     0.504000000
C     2.423000000    -3.766000000     2.071000000
C     1.514000000    -4.179000000     3.278000000
H     1.993000000    -4.214000000     4.259000000
H     1.199000000    -5.217000000     3.155000000
C     0.418000000    -3.206000000     3.434000000
C     0.597000000    -2.132000000     4.313000000
H     1.534000000    -1.919000000     4.821000000
C    -0.782000000    -3.355000000     2.781000000
C    -1.817000000    -2.438000000     2.964000000
H    -2.734000000    -2.457000000     2.380000000
C    -1.663000000    -1.436000000     3.856000000
O    -2.594000000    -0.429000000     3.775000000
C    -2.388000000     0.741000000     3.083000000
C    -3.669000000     1.116000000     2.283000000
C    -4.635000000     0.149000000     2.007000000
H    -4.616000000    -0.817000000     2.506000000
C    -3.810000000     2.448000000     1.755000000
H    -3.085000000     3.192000000     2.073000000
O    -2.048000000     1.754000000     4.036000000
H    -1.541000000     0.549000000     2.408000000
C    -0.473000000    -1.270000000     4.529000000
C    -0.196000000    -0.076000000     5.448000000
H     0.656000000    -0.366000000     6.066000000
H    -1.035000000     0.149000000     6.110000000
C     0.250000000     1.141000000     4.699000000
C    -0.682000000     2.029000000     4.184000000
C    -0.278000000     3.079000000     3.437000000
H    -1.039000000     3.527000000     2.803000000
C     1.093000000     3.358000000     3.283000000
O     1.394000000     4.427000000     2.477000000
C     1.694000000     4.079000000     1.126000000
H     1.349000000     3.041000000     1.008000000
C     0.921000000     4.985000000     0.129000000
C     1.213000000     4.859000000    -1.234000000
H     1.925000000     4.099000000    -1.545000000
C    -0.107000000     5.924000000     0.523000000
H    -0.239000000     6.184000000     1.570000000
C    -0.803000000     6.686000000    -0.466000000
O    -1.841000000     7.516000000    -0.087000000
C    -0.472000000     6.488000000    -1.785000000
H    -1.185000000     6.861000000    -2.516000000
C     0.462000000     5.568000000    -2.184000000
O     0.678000000     5.308000000    -3.505000000
C     1.772000000     4.480000000    -3.921000000
C     1.479000000     3.258000000    -4.581000000
H     0.475000000     2.930000000    -4.835000000
C     3.100000000     4.902000000    -3.815000000
H     3.311000000     5.887000000    -3.406000000
C     4.124000000     4.080000000    -4.347000000
H     5.108000000     4.534000000    -4.430000000
C     3.891000000     2.864000000    -4.877000000
H     4.647000000     2.237000000    -5.344000000
C     2.573000000     2.582000000    -5.075000000
O     2.347000000     1.365000000    -5.679000000
C     2.672000000     0.129000000    -5.083000000
C     2.513000000    -1.060000000    -5.845000000
H     2.085000000    -1.040000000    -6.844000000
C     2.774000000    -2.268000000    -5.167000000
O     2.646000000    -3.441000000    -5.887000000
C     2.037000000    -4.563000000    -5.322000000
C     0.628000000    -4.512000000    -5.010000000
H     0.128000000    -3.553000000    -5.117000000
C     2.766000000    -5.732000000    -4.990000000
H     3.829000000    -5.569000000    -5.154000000
C     2.120000000    -6.851000000    -4.525000000
H     2.695000000    -7.758000000    -4.358000000
C     0.757000000    -6.837000000    -4.243000000
H     0.200000000    -7.689000000    -3.862000000
C     0.010000000    -5.653000000    -4.491000000
O    -1.293000000    -5.663000000    -4.110000000
C    -1.684000000    -5.075000000    -2.935000000
C    -3.064000000    -5.002000000    -2.688000000
H    -3.845000000    -5.153000000    -3.429000000
C    -3.597000000    -4.722000000    -1.445000000
O    -4.915000000    -4.503000000    -1.469000000
C    -5.485000000    -3.832000000    -0.423000000
C    -5.632000000    -2.448000000    -0.412000000
H    -5.366000000    -1.884000000    -1.303000000
C    -5.974000000    -4.636000000     0.624000000
H    -5.897000000    -5.718000000     0.551000000
C    -6.626000000    -4.006000000     1.635000000
H    -6.844000000    -4.561000000     2.544000000
C    -6.756000000    -2.601000000     1.716000000
H    -7.098000000    -2.061000000     2.596000000
C    -6.276000000    -1.845000000     0.653000000
O    -6.497000000    -0.501000000     0.503000000
C    -5.634000000     0.430000000     1.082000000
C    -5.791000000     1.726000000     0.537000000
H    -6.492000000     1.873000000    -0.281000000
C    -4.881000000     2.740000000     0.904000000
O    -5.003000000     4.045000000     0.446000000
C    -4.468000000     5.237000000     0.968000000
C    -4.911000000     5.769000000     2.160000000
H    -5.666000000     5.262000000     2.756000000
C    -4.494000000     7.001000000     2.598000000
H    -4.967000000     7.514000000     3.432000000
C    -3.566000000     7.666000000     1.770000000
H    -3.203000000     8.633000000     2.107000000
C    -2.904000000     7.029000000     0.628000000
C    -3.495000000     5.861000000     0.231000000
H    -3.131000000     5.449000000    -0.706000000
C    -0.708000000     1.367000000    -1.825000000
H    -0.294000000     2.180000000    -2.417000000
C     0.129000000     0.863000000    -0.834000000
H     1.210000000     0.975000000    -0.815000000
C    -0.318000000    -0.099000000     0.046000000
H     0.416000000    -0.541000000     0.727000000
C    -1.595000000    -0.569000000    -0.060000000
H    -1.916000000    -1.426000000     0.527000000
C    -2.468000000    -0.089000000    -1.015000000
H    -3.532000000    -0.298000000    -1.094000000
C    -2.002000000     0.845000000    -1.941000000
C    -2.978000000     1.419000000    -2.956000000
O    -4.197000000     1.109000000    -2.942000000
O    -2.487000000     1.984000000    -3.962000000
O    -3.565000000     6.718000000    -4.629000000
H    -3.580000000     7.002000000    -3.715000000
H    -3.606000000     5.763000000    -4.584000000
O    -5.502000000    -3.843000000    -6.459000000
H    -4.952000000    -3.645000000    -5.702000000
H    -4.882000000    -4.008000000    -7.169000000
O    -6.608000000     2.233000000    -3.566000000
H    -7.177000000     1.777000000    -2.945000000
H    -5.730000000     1.908000000    -3.369000000
O     0.293000000     6.461000000    -6.541000000
H     0.292000000     5.752000000    -5.897000000
H    -0.501000000     6.318000000    -7.056000000
O     0.447000000     1.114000000    -8.144000000
H    -0.159000000     1.694000000    -8.606000000
H     0.000000000     0.907000000    -7.323000000
O    -5.707000000    -0.933000000    -3.840000000
H    -5.209000000    -1.008000000    -4.654000000
H    -5.234000000    -0.276000000    -3.329000000
O    -8.339000000    -1.566000000    -3.601000000
H    -7.409000000    -1.347000000    -3.641000000
H    -8.536000000    -1.935000000    -4.462000000
O    -3.752000000     2.313000000    -8.372000000
H    -4.431000000     2.688000000    -8.934000000
H    -4.233000000     1.782000000    -7.738000000
O    -8.617000000     1.964000000    -1.429000000
H    -8.808000000     2.890000000    -1.581000000
H    -9.010000000     1.776000000    -0.577000000
O    -1.386000000     0.849000000    -6.089000000
H    -2.297000000     0.791000000    -6.377000000
H    -1.428000000     1.303000000    -5.248000000
O    -4.680000000     4.301000000    -2.925000000
H    -5.428000000     3.718000000    -2.790000000
H    -3.948000000     3.712000000    -3.109000000
O    -7.897000000     4.722000000    -4.482000000
H    -7.172000000     5.347000000    -4.509000000
H    -7.482000000     3.883000000    -4.280000000
O    -2.768000000    -1.723000000    -7.950000000
H    -2.833000000    -2.616000000    -7.610000000
H    -1.828000000    -1.572000000    -8.049000000
O    -6.978000000    -0.046000000    -6.762000000
H    -7.233000000     0.451000000    -7.539000000
H    -7.456000000    -0.872000000    -6.837000000
O    -2.945000000    -2.799000000    -5.330000000
H    -2.650000000    -2.880000000    -4.423000000
H    -2.459000000    -2.050000000    -5.674000000
O    -0.743000000    -1.565000000    -3.907000000
H    -1.108000000    -0.730000000    -4.200000000
H    -0.241000000    -1.346000000    -3.123000000
O    -4.999000000     5.618000000    -7.075000000
H    -4.702000000     5.216000000    -7.891000000
H    -4.537000000     5.137000000    -6.389000000
O    -3.302000000     4.122000000    -5.578000000
H    -2.699000000     3.643000000    -5.009000000
H    -3.859000000     3.444000000    -5.961000000
O    -4.748000000     1.329000000    -5.772000000
H    -4.762000000     1.494000000    -4.829000000
H    -5.584000000     0.900000000    -5.953000000
