215
-1434.53671
C     2.443000000    -2.276000000    -3.981000000
H     2.519000000    -3.237000000    -3.479000000
C     2.714000000    -1.071000000    -3.340000000
C     2.375000000     0.085000000    -3.888000000
H     2.629000000     1.031000000    -3.418000000
C     3.386000000    -1.019000000    -1.922000000
O     3.806000000    -2.403000000    -1.584000000
H     2.573000000    -0.847000000    -1.201000000
O     4.419000000     0.034000000    -1.750000000
C     4.460000000     0.710000000    -0.574000000
C     4.120000000     2.064000000    -0.558000000
H     3.813000000     2.624000000    -1.439000000
C     3.935000000     2.744000000     0.669000000
O     3.539000000     4.067000000     0.780000000
C     4.114000000     2.114000000     1.925000000
C     3.951000000     2.863000000     3.237000000
H     4.560000000     2.423000000     4.029000000
C     2.482000000     2.812000000     3.707000000
C     2.049000000     1.732000000     4.516000000
H     2.778000000     1.032000000     4.915000000
H     4.324000000     3.881000000     3.101000000
C     4.540000000     0.785000000     1.906000000
H     4.717000000     0.281000000     2.853000000
C     4.736000000     0.084000000     0.699000000
C     5.297000000    -1.363000000     0.658000000
H     5.986000000    -1.455000000     1.501000000
H     5.888000000    -1.423000000    -0.258000000
C     4.137000000    -2.373000000     0.798000000
C     3.550000000    -2.787000000     1.984000000
H     3.877000000    -2.249000000     2.870000000
C     3.577000000    -2.950000000    -0.387000000
C     2.421000000    -3.726000000    -0.382000000
H     1.932000000    -3.975000000    -1.320000000
C     1.896000000    -4.036000000     0.873000000
O     0.762000000    -4.749000000     0.902000000
C    -0.555000000    -4.078000000     0.971000000
C    -1.499000000    -4.689000000    -0.102000000
C    -2.879000000    -4.403000000     0.129000000
H    -3.249000000    -3.986000000     1.063000000
C    -1.038000000    -5.315000000    -1.258000000
H     0.006000000    -5.584000000    -1.392000000
O    -1.048000000    -4.281000000     2.275000000
H    -0.434000000    -3.042000000     0.622000000
C     2.449000000    -3.647000000     2.115000000
C     1.726000000    -4.071000000     3.408000000
H     2.485000000    -4.094000000     4.192000000
H     1.470000000    -5.121000000     3.248000000
C     0.602000000    -3.151000000     3.631000000
C     0.833000000    -1.979000000     4.371000000
H     1.842000000    -1.747000000     4.701000000
C    -0.723000000    -3.295000000     3.113000000
C    -1.698000000    -2.375000000     3.362000000
H    -2.731000000    -2.471000000     3.038000000
C    -1.423000000    -1.235000000     4.143000000
O    -2.347000000    -0.307000000     4.160000000
C    -2.124000000     0.910000000     3.362000000
C    -3.362000000     1.173000000     2.534000000
C    -4.431000000     0.260000000     2.378000000
H    -4.494000000    -0.657000000     2.958000000
C    -3.408000000     2.335000000     1.771000000
H    -2.558000000     3.012000000     1.745000000
O    -1.635000000     2.048000000     4.162000000
H    -1.330000000     0.646000000     2.648000000
C    -0.095000000    -1.003000000     4.586000000
C     0.219000000     0.216000000     5.435000000
H     1.066000000     0.111000000     6.116000000
H    -0.740000000     0.312000000     5.950000000
C     0.694000000     1.480000000     4.680000000
C    -0.294000000     2.380000000     4.139000000
C     0.101000000     3.413000000     3.300000000
H    -0.576000000     4.089000000     2.785000000
C     1.481000000     3.575000000     3.099000000
O     1.885000000     4.559000000     2.216000000
C     2.072000000     4.148000000     0.848000000
H     1.641000000     3.152000000     0.664000000
C     1.430000000     5.159000000    -0.129000000
C     1.572000000     4.975000000    -1.484000000
H     2.282000000     4.242000000    -1.859000000
C     0.438000000     6.072000000     0.294000000
H     0.242000000     6.248000000     1.348000000
C    -0.323000000     6.765000000    -0.601000000
O    -1.431000000     7.444000000    -0.074000000
C    -0.057000000     6.672000000    -1.959000000
H    -0.720000000     7.210000000    -2.632000000
C     0.844000000     5.760000000    -2.414000000
O     0.723000000     5.433000000    -3.691000000
C     1.634000000     4.609000000    -4.344000000
C     1.128000000     3.318000000    -4.730000000
H     0.102000000     3.046000000    -4.494000000
C     2.958000000     4.903000000    -4.594000000
H     3.302000000     5.912000000    -4.381000000
C     3.801000000     4.100000000    -5.337000000
H     4.830000000     4.420000000    -5.476000000
C     3.355000000     2.795000000    -5.585000000
H     4.006000000     2.055000000    -6.043000000
C     1.997000000     2.429000000    -5.383000000
O     1.474000000     1.287000000    -5.761000000
C     1.798000000     0.100000000    -5.182000000
C     1.480000000    -1.098000000    -5.804000000
H     0.972000000    -1.072000000    -6.765000000
C     1.742000000    -2.286000000    -5.203000000
O     1.339000000    -3.438000000    -5.777000000
C     1.007000000    -4.679000000    -5.199000000
C    -0.114000000    -4.802000000    -4.394000000
H    -0.752000000    -3.952000000    -4.169000000
C     1.790000000    -5.750000000    -5.553000000
H     2.678000000    -5.641000000    -6.172000000
C     1.500000000    -7.035000000    -5.095000000
H     2.119000000    -7.895000000    -5.335000000
C     0.358000000    -7.179000000    -4.300000000
H     0.206000000    -8.216000000    -4.013000000
C    -0.508000000    -6.079000000    -4.030000000
O    -1.704000000    -6.364000000    -3.438000000
C    -2.045000000    -5.755000000    -2.194000000
C    -3.380000000    -5.482000000    -2.023000000
H    -4.042000000    -5.947000000    -2.749000000
C    -3.775000000    -4.767000000    -0.871000000
O    -5.156000000    -4.458000000    -0.682000000
C    -5.647000000    -3.774000000     0.385000000
C    -5.891000000    -2.380000000     0.225000000
H    -5.762000000    -1.929000000    -0.756000000
C    -5.905000000    -4.397000000     1.635000000
H    -5.557000000    -5.416000000     1.789000000
C    -6.330000000    -3.611000000     2.711000000
H    -6.446000000    -4.036000000     3.705000000
C    -6.623000000    -2.242000000     2.582000000
H    -7.013000000    -1.682000000     3.428000000
C    -6.365000000    -1.623000000     1.342000000
O    -6.484000000    -0.280000000     1.184000000
C    -5.455000000     0.547000000     1.496000000
C    -5.474000000     1.705000000     0.739000000
H    -6.198000000     1.817000000    -0.063000000
C    -4.401000000     2.509000000     0.777000000
O    -4.338000000     3.692000000     0.074000000
C    -3.927000000     4.916000000     0.525000000
C    -4.432000000     5.360000000     1.726000000
H    -5.166000000     4.744000000     2.239000000
C    -3.999000000     6.533000000     2.296000000
H    -4.427000000     6.862000000     3.240000000
C    -2.965000000     7.269000000     1.705000000
H    -2.645000000     8.132000000     2.283000000
C    -2.396000000     6.740000000     0.511000000
C    -2.914000000     5.576000000    -0.099000000
H    -2.477000000     5.153000000    -1.000000000
C    -0.991000000     1.648000000    -1.848000000
H    -0.714000000     2.468000000    -2.506000000
C    -0.050000000     1.313000000    -0.852000000
H     0.931000000     1.781000000    -0.876000000
C    -0.355000000     0.375000000     0.107000000
H     0.253000000     0.158000000     0.956000000
C    -1.591000000    -0.287000000     0.090000000
H    -1.846000000    -1.017000000     0.854000000
C    -2.479000000     0.072000000    -0.920000000
H    -3.481000000    -0.347000000    -0.965000000
C    -2.188000000     1.008000000    -1.915000000
C    -3.132000000     1.175000000    -3.103000000
O    -4.342000000     1.053000000    -3.006000000
O    -2.662000000     1.751000000    -4.071000000
O    -4.000000000     0.658000000    -7.738000000
H    -4.133000000     0.122000000    -6.956000000
H    -3.344000000     1.304000000    -7.476000000
O    -1.747000000     2.918000000    -7.790000000
H    -0.820000000     3.142000000    -7.710000000
H    -2.057000000     3.438000000    -8.531000000
O    -6.217000000     2.948000000    -3.029000000
H    -6.857000000     2.545000000    -2.443000000
H    -5.463000000     2.359000000    -3.002000000
O    -0.380000000     6.115000000    -6.140000000
H    -0.803000000     6.192000000    -6.995000000
H    -1.064000000     5.771000000    -5.565000000
O    -7.043000000    -3.115000000    -5.572000000
H    -6.270000000    -2.694000000    -5.949000000
H    -6.927000000    -4.046000000    -5.764000000
O    -5.092000000    -1.735000000    -2.950000000
H    -4.158000000    -1.920000000    -2.854000000
H    -5.154000000    -0.781000000    -2.896000000
O    -7.848000000    -2.593000000    -2.908000000
H    -7.039000000    -2.135000000    -2.681000000
H    -7.730000000    -2.849000000    -3.823000000
O    -5.443000000     2.926000000    -7.186000000
H    -6.196000000     2.885000000    -7.776000000
H    -5.121000000     2.026000000    -7.146000000
O    -8.348000000     2.044000000    -1.737000000
H    -8.697000000     1.399000000    -2.352000000
H    -8.893000000     1.951000000    -0.956000000
O    -1.746000000    -0.250000000    -5.480000000
H    -0.801000000    -0.104000000    -5.441000000
H    -2.125000000     0.522000000    -5.061000000
O    -7.956000000     5.242000000    -2.880000000
H    -8.445000000     5.247000000    -3.703000000
H    -7.477000000     4.414000000    -2.891000000
O    -5.066000000     5.393000000    -3.685000000
H    -5.491000000     4.660000000    -3.240000000
H    -4.131000000     5.193000000    -3.637000000
O    -8.340000000     2.733000000    -4.971000000
H    -8.622000000     1.971000000    -4.466000000
H    -7.435000000     2.880000000    -4.697000000
O    -3.880000000    -2.912000000    -5.318000000
H    -3.565000000    -2.180000000    -5.848000000
H    -4.142000000    -2.512000000    -4.489000000
O    -2.389000000    -1.958000000    -3.097000000
H    -2.213000000    -1.327000000    -3.796000000
H    -1.699000000    -1.799000000    -2.453000000
O    -1.845000000    -2.381000000    -7.577000000
H    -2.318000000    -1.958000000    -8.294000000
H    -1.884000000    -1.749000000    -6.858000000
O    -3.392000000     6.943000000    -5.858000000
H    -2.863000000     6.959000000    -6.655000000
H    -3.225000000     6.080000000    -5.477000000
O    -2.489000000     4.203000000    -5.116000000
H    -2.375000000     3.387000000    -4.630000000
H    -2.487000000     3.937000000    -6.035000000
O    -5.183000000    -0.167000000    -5.358000000
H    -4.908000000     0.400000000    -4.638000000
H    -5.830000000    -0.754000000    -4.967000000
