215
-1473.24262
C     2.082000000    -1.927000000    -4.294000000
H     2.115000000    -2.828000000    -3.688000000
C     2.942000000    -0.875000000    -3.874000000
C     3.003000000     0.271000000    -4.698000000
H     3.706000000     1.053000000    -4.424000000
C     3.584000000    -0.867000000    -2.435000000
O     4.248000000    -2.082000000    -2.023000000
H     2.762000000    -0.783000000    -1.709000000
O     4.490000000     0.265000000    -2.294000000
C     4.489000000     0.978000000    -1.102000000
C     3.882000000     2.234000000    -1.132000000
H     3.557000000     2.716000000    -2.051000000
C     3.621000000     2.900000000     0.032000000
O     2.835000000     4.105000000    -0.149000000
C     4.050000000     2.426000000     1.291000000
C     3.724000000     3.217000000     2.542000000
H     4.497000000     3.025000000     3.289000000
C     2.403000000     2.933000000     3.163000000
C     2.215000000     1.931000000     4.129000000
H     3.082000000     1.374000000     4.476000000
H     3.712000000     4.278000000     2.286000000
C     4.772000000     1.230000000     1.307000000
H     5.079000000     0.785000000     2.250000000
C     4.925000000     0.476000000     0.149000000
C     5.643000000    -0.883000000     0.251000000
H     6.308000000    -0.861000000     1.117000000
H     6.372000000    -1.027000000    -0.549000000
C     4.581000000    -1.942000000     0.400000000
C     4.103000000    -2.282000000     1.693000000
H     4.573000000    -1.777000000     2.533000000
C     3.919000000    -2.475000000    -0.715000000
C     2.817000000    -3.340000000    -0.516000000
H     2.240000000    -3.642000000    -1.387000000
C     2.452000000    -3.713000000     0.749000000
O     1.418000000    -4.580000000     0.803000000
C     0.107000000    -4.008000000     1.080000000
C    -1.052000000    -4.554000000     0.227000000
C    -2.420000000    -4.341000000     0.656000000
H    -2.697000000    -3.826000000     1.572000000
C    -0.794000000    -5.175000000    -0.966000000
H     0.165000000    -5.423000000    -1.413000000
O    -0.219000000    -4.109000000     2.429000000
H     0.112000000    -2.938000000     0.823000000
C     3.055000000    -3.204000000     1.875000000
C     2.591000000    -3.588000000     3.274000000
H     3.408000000    -3.545000000     3.997000000
H     2.330000000    -4.645000000     3.179000000
C     1.370000000    -2.779000000     3.649000000
C     1.621000000    -1.656000000     4.478000000
H     2.614000000    -1.467000000     4.878000000
C     0.039000000    -3.082000000     3.319000000
C    -0.991000000    -2.327000000     3.809000000
H    -1.983000000    -2.456000000     3.383000000
C    -0.733000000    -1.245000000     4.603000000
O    -1.753000000    -0.377000000     4.872000000
C    -1.914000000     0.725000000     3.975000000
C    -3.397000000     0.972000000     3.560000000
C    -4.268000000    -0.154000000     3.615000000
H    -3.881000000    -1.019000000     4.148000000
C    -3.885000000     2.157000000     2.969000000
H    -3.226000000     3.021000000     2.987000000
O    -1.442000000     1.960000000     4.569000000
H    -1.450000000     0.529000000     2.998000000
C     0.586000000    -0.799000000     4.848000000
C     0.791000000     0.397000000     5.659000000
H     1.702000000     0.218000000     6.235000000
H     0.018000000     0.694000000     6.371000000
C     0.983000000     1.615000000     4.725000000
C    -0.129000000     2.358000000     4.223000000
C     0.028000000     3.273000000     3.236000000
H    -0.878000000     3.700000000     2.814000000
C     1.277000000     3.546000000     2.674000000
O     1.254000000     4.415000000     1.632000000
C     1.397000000     3.839000000     0.252000000
H     1.150000000     2.769000000     0.320000000
C     0.492000000     4.480000000    -0.775000000
C     0.997000000     4.783000000    -2.053000000
H     2.026000000     4.499000000    -2.260000000
C    -0.854000000     4.720000000    -0.578000000
H    -1.278000000     4.570000000     0.412000000
C    -1.693000000     5.269000000    -1.611000000
O    -3.066000000     5.299000000    -1.378000000
C    -1.176000000     5.479000000    -2.900000000
H    -1.766000000     5.817000000    -3.748000000
C     0.144000000     5.170000000    -3.075000000
O     0.702000000     5.434000000    -4.320000000
C     1.703000000     4.604000000    -4.891000000
C     1.533000000     3.355000000    -5.456000000
H     0.520000000     2.982000000    -5.332000000
C     2.914000000     5.274000000    -5.133000000
H     3.037000000     6.311000000    -4.834000000
C     3.949000000     4.681000000    -5.854000000
H     4.916000000     5.175000000    -5.906000000
C     3.752000000     3.385000000    -6.380000000
H     4.575000000     2.919000000    -6.916000000
C     2.520000000     2.715000000    -6.193000000
O     2.350000000     1.426000000    -6.799000000
C     2.289000000     0.293000000    -5.923000000
C     1.397000000    -0.699000000    -6.234000000
H     0.650000000    -0.610000000    -7.018000000
C     1.280000000    -1.803000000    -5.398000000
O     0.336000000    -2.784000000    -5.711000000
C     0.330000000    -4.010000000    -5.245000000
C    -0.677000000    -4.445000000    -4.395000000
H    -1.304000000    -3.660000000    -3.981000000
C     1.361000000    -4.896000000    -5.640000000
H     2.128000000    -4.624000000    -6.361000000
C     1.378000000    -6.181000000    -5.194000000
H     2.167000000    -6.859000000    -5.506000000
C     0.387000000    -6.621000000    -4.275000000
H     0.413000000    -7.659000000    -3.953000000
C    -0.658000000    -5.753000000    -3.881000000
O    -1.683000000    -6.166000000    -2.965000000
C    -1.863000000    -5.566000000    -1.786000000
C    -3.152000000    -5.404000000    -1.381000000
H    -3.860000000    -5.747000000    -2.130000000
C    -3.469000000    -4.685000000    -0.217000000
O    -4.737000000    -4.459000000     0.186000000
C    -5.299000000    -4.105000000     1.378000000
C    -5.376000000    -2.792000000     1.801000000
H    -5.080000000    -2.067000000     1.047000000
C    -5.690000000    -5.136000000     2.223000000
H    -5.738000000    -6.140000000     1.809000000
C    -6.173000000    -4.821000000     3.456000000
H    -6.545000000    -5.584000000     4.135000000
C    -6.316000000    -3.507000000     3.896000000
H    -6.773000000    -3.350000000     4.869000000
C    -6.030000000    -2.520000000     3.009000000
O    -6.346000000    -1.177000000     3.383000000
C    -5.573000000    -0.057000000     3.181000000
C    -6.106000000     1.131000000     2.599000000
H    -7.156000000     1.154000000     2.321000000
C    -5.256000000     2.234000000     2.587000000
O    -5.820000000     3.385000000     2.149000000
C    -5.074000000     4.410000000     1.627000000
C    -4.902000000     5.594000000     2.353000000
H    -5.285000000     5.734000000     3.360000000
C    -4.291000000     6.759000000     1.804000000
H    -4.301000000     7.690000000     2.364000000
C    -3.647000000     6.636000000     0.594000000
H    -3.015000000     7.411000000     0.168000000
C    -3.720000000     5.442000000    -0.153000000
C    -4.493000000     4.363000000     0.372000000
H    -4.699000000     3.494000000    -0.247000000
C    -1.646000000     1.117000000    -1.725000000
H    -1.733000000     1.776000000    -2.586000000
C    -0.355000000     1.008000000    -1.291000000
H     0.389000000     1.651000000    -1.754000000
C    -0.098000000     0.061000000    -0.232000000
H     0.917000000     0.177000000     0.264000000
C    -1.115000000    -0.657000000     0.345000000
H    -0.956000000    -1.167000000     1.292000000
C    -2.428000000    -0.504000000    -0.167000000
H    -3.232000000    -1.095000000     0.267000000
C    -2.697000000     0.322000000    -1.327000000
C    -4.021000000     0.408000000    -1.928000000
O    -4.820000000    -0.463000000    -1.748000000
O    -4.284000000     1.487000000    -2.451000000
O    -3.707000000     2.326000000    -7.364000000
H    -4.123000000     1.525000000    -7.682000000
H    -3.908000000     2.344000000    -6.428000000
O    -6.015000000     4.437000000    -3.658000000
H    -6.820000000     4.858000000    -3.958000000
H    -6.311000000     3.746000000    -3.066000000
O    -4.061000000    -2.997000000    -2.961000000
H    -3.114000000    -3.022000000    -3.099000000
H    -4.179000000    -2.412000000    -2.212000000
O    -8.109000000    -0.364000000    -5.062000000
H    -8.292000000    -1.137000000    -5.597000000
H    -8.008000000    -0.707000000    -4.173000000
O    -6.598000000    -4.144000000    -2.365000000
H    -5.780000000    -3.876000000    -1.946000000
H    -7.278000000    -3.911000000    -1.733000000
O    -7.283000000    -0.856000000    -0.092000000
H    -6.520000000    -0.636000000    -0.628000000
H    -7.238000000    -1.806000000     0.008000000
O    -1.474000000     0.295000000    -4.991000000
H    -0.735000000     0.733000000    -5.414000000
H    -2.162000000     0.959000000    -4.963000000
O    -7.058000000    -1.499000000    -2.885000000
H    -6.927000000    -2.444000000    -2.805000000
H    -6.380000000    -1.115000000    -2.330000000
O    -5.522000000     4.748000000    -6.399000000
H    -5.190000000     3.942000000    -6.794000000
H    -5.573000000     4.552000000    -5.463000000
O    -6.683000000     2.362000000    -2.012000000
H    -7.252000000     1.622000000    -1.798000000
H    -5.847000000     1.960000000    -2.248000000
O    -5.173000000    -2.169000000    -5.439000000
H    -4.876000000    -2.581000000    -4.628000000
H    -6.127000000    -2.157000000    -5.366000000
O    -7.551000000     1.779000000    -6.442000000
H    -7.968000000     1.055000000    -5.975000000
H    -8.177000000     2.500000000    -6.375000000
O    -9.170000000     2.376000000    -3.978000000
H    -8.408000000     1.834000000    -4.180000000
H    -9.544000000     1.979000000    -3.191000000
O    -7.694000000     4.614000000    -0.835000000
H    -6.862000000     4.537000000    -0.368000000
H    -7.652000000     3.938000000    -1.512000000
O    -1.094000000    -1.589000000    -2.841000000
H    -0.913000000    -1.283000000    -1.953000000
H    -1.166000000    -0.788000000    -3.361000000
O    -2.838000000    -2.092000000    -6.837000000
H    -3.706000000    -2.090000000    -6.433000000
H    -2.287000000    -1.604000000    -6.225000000
O    -9.378000000     0.753000000    -1.273000000
H    -8.944000000     0.012000000    -0.850000000
H   -10.036000000     1.038000000    -0.640000000
O    -3.691000000     2.360000000    -4.765000000
H    -3.784000000     3.291000000    -4.563000000
H    -3.932000000     1.914000000    -3.953000000
O    -5.347000000     0.045000000    -7.183000000
H    -5.788000000     0.590000000    -6.532000000
H    -4.871000000    -0.607000000    -6.667000000
