215
-1447.54129
C     1.423000000    -2.241000000    -3.500000000
H     1.397000000    -2.958000000    -2.683000000
C     2.147000000    -1.044000000    -3.289000000
C     1.989000000     0.037000000    -4.142000000
H     2.485000000     0.962000000    -3.862000000
C     3.110000000    -1.062000000    -2.156000000
O     3.773000000    -2.265000000    -1.887000000
H     2.523000000    -0.826000000    -1.256000000
O     4.035000000    -0.037000000    -2.348000000
C     4.205000000     0.898000000    -1.333000000
C     3.724000000     2.118000000    -1.554000000
H     3.354000000     2.446000000    -2.522000000
C     3.670000000     3.017000000    -0.496000000
O     3.089000000     4.236000000    -0.659000000
C     4.068000000     2.597000000     0.783000000
C     3.937000000     3.486000000     2.005000000
H     4.754000000     3.387000000     2.722000000
C     2.551000000     3.241000000     2.656000000
C     2.442000000     2.319000000     3.680000000
H     3.312000000     1.833000000     4.113000000
H     4.032000000     4.521000000     1.668000000
C     4.511000000     1.330000000     1.042000000
H     4.856000000     0.974000000     2.009000000
C     4.650000000     0.473000000    -0.037000000
C     5.324000000    -0.843000000     0.077000000
H     6.090000000    -0.794000000     0.853000000
H     5.954000000    -1.033000000    -0.795000000
C     4.413000000    -1.971000000     0.444000000
C     4.163000000    -2.272000000     1.793000000
H     4.714000000    -1.693000000     2.530000000
C     3.696000000    -2.630000000    -0.564000000
C     2.792000000    -3.590000000    -0.254000000
H     2.198000000    -4.117000000    -0.997000000
C     2.457000000    -3.808000000     1.073000000
O     1.415000000    -4.696000000     1.324000000
C     0.107000000    -4.144000000     1.578000000
C    -0.969000000    -5.037000000     0.926000000
C    -2.304000000    -4.971000000     1.333000000
H    -2.550000000    -4.366000000     2.202000000
C    -0.739000000    -5.836000000    -0.215000000
H     0.242000000    -5.842000000    -0.684000000
O    -0.146000000    -4.048000000     2.949000000
H     0.010000000    -3.179000000     1.059000000
C     3.118000000    -3.164000000     2.139000000
C     2.657000000    -3.428000000     3.589000000
H     3.470000000    -3.185000000     4.277000000
H     2.547000000    -4.505000000     3.729000000
C     1.516000000    -2.500000000     3.974000000
C     1.709000000    -1.276000000     4.622000000
H     2.735000000    -0.969000000     4.810000000
C     0.189000000    -2.886000000     3.669000000
C    -0.893000000    -2.017000000     3.966000000
H    -1.889000000    -2.301000000     3.638000000
C    -0.631000000    -0.801000000     4.609000000
O    -1.644000000     0.175000000     4.603000000
C    -1.585000000     1.112000000     3.568000000
C    -2.983000000     1.154000000     2.898000000
C    -3.812000000     0.010000000     2.793000000
H    -3.384000000    -0.925000000     3.145000000
C    -3.367000000     2.259000000     2.156000000
H    -2.691000000     3.100000000     2.020000000
O    -1.152000000     2.377000000     4.108000000
H    -0.849000000     0.925000000     2.772000000
C     0.684000000    -0.375000000     4.868000000
C     1.035000000     1.067000000     5.303000000
H     1.938000000     1.076000000     5.917000000
H     0.239000000     1.363000000     5.988000000
C     1.161000000     2.070000000     4.173000000
C     0.071000000     2.752000000     3.767000000
C     0.185000000     3.751000000     2.804000000
H    -0.694000000     4.354000000     2.593000000
C     1.454000000     3.897000000     2.249000000
O     1.428000000     4.759000000     1.149000000
C     1.699000000     4.263000000    -0.200000000
H     1.378000000     3.221000000    -0.345000000
C     0.917000000     5.093000000    -1.252000000
C     1.209000000     5.027000000    -2.623000000
H     2.127000000     4.541000000    -2.945000000
C    -0.240000000     5.669000000    -0.837000000
H    -0.557000000     5.660000000     0.202000000
C    -1.097000000     6.310000000    -1.722000000
O    -2.339000000     6.906000000    -1.368000000
C    -0.802000000     6.264000000    -3.113000000
H    -1.499000000     6.688000000    -3.833000000
C     0.349000000     5.678000000    -3.551000000
O     0.582000000     5.505000000    -4.884000000
C     1.362000000     4.476000000    -5.343000000
C     0.832000000     3.279000000    -5.754000000
H    -0.244000000     3.135000000    -5.823000000
C     2.719000000     4.703000000    -5.532000000
H     3.145000000     5.684000000    -5.338000000
C     3.587000000     3.667000000    -5.890000000
H     4.625000000     3.943000000    -6.055000000
C     3.135000000     2.408000000    -6.078000000
H     3.851000000     1.604000000    -6.226000000
C     1.737000000     2.206000000    -6.077000000
O     1.155000000     0.960000000    -6.229000000
C     1.225000000    -0.079000000    -5.304000000
C     0.363000000    -1.159000000    -5.488000000
H    -0.442000000    -1.220000000    -6.217000000
C     0.457000000    -2.241000000    -4.596000000
O    -0.338000000    -3.341000000    -4.801000000
C    -0.070000000    -4.632000000    -4.357000000
C    -0.878000000    -5.120000000    -3.304000000
H    -1.604000000    -4.508000000    -2.774000000
C     0.861000000    -5.469000000    -4.993000000
H     1.441000000    -4.924000000    -5.734000000
C     1.047000000    -6.750000000    -4.557000000
H     1.729000000    -7.340000000    -5.164000000
C     0.149000000    -7.346000000    -3.599000000
H     0.133000000    -8.414000000    -3.394000000
C    -0.813000000    -6.519000000    -3.027000000
O    -1.616000000    -7.058000000    -2.101000000
C    -1.771000000    -6.432000000    -0.924000000
C    -3.070000000    -6.267000000    -0.516000000
H    -3.926000000    -6.684000000    -1.041000000
C    -3.320000000    -5.572000000     0.603000000
O    -4.648000000    -5.517000000     1.016000000
C    -5.055000000    -4.644000000     1.994000000
C    -5.085000000    -3.268000000     1.604000000
H    -4.784000000    -3.041000000     0.584000000
C    -5.788000000    -5.095000000     3.033000000
H    -5.944000000    -6.155000000     3.216000000
C    -6.314000000    -4.106000000     3.914000000
H    -6.933000000    -4.477000000     4.727000000
C    -6.277000000    -2.755000000     3.636000000
H    -6.677000000    -2.020000000     4.330000000
C    -5.752000000    -2.298000000     2.461000000
O    -5.987000000    -1.001000000     2.198000000
C    -5.033000000     0.007000000     2.107000000
C    -5.410000000     1.197000000     1.423000000
H    -6.266000000     1.145000000     0.754000000
C    -4.598000000     2.287000000     1.460000000
O    -4.779000000     3.296000000     0.557000000
C    -4.273000000     4.589000000     0.708000000
C    -4.550000000     5.367000000     1.874000000
H    -5.001000000     4.826000000     2.701000000
C    -4.160000000     6.649000000     1.860000000
H    -4.446000000     7.219000000     2.741000000
C    -3.513000000     7.248000000     0.771000000
H    -3.252000000     8.303000000     0.747000000
C    -3.056000000     6.424000000    -0.270000000
C    -3.586000000     5.108000000    -0.350000000
H    -3.418000000     4.431000000    -1.184000000
C    -0.916000000     0.469000000    -2.089000000
H    -0.788000000     1.001000000    -3.029000000
C    -0.003000000     0.534000000    -1.047000000
H     0.980000000     0.968000000    -1.209000000
C    -0.153000000    -0.229000000     0.114000000
H     0.618000000    -0.392000000     0.867000000
C    -1.389000000    -0.868000000     0.334000000
H    -1.415000000    -1.349000000     1.308000000
C    -2.379000000    -0.770000000    -0.645000000
H    -3.336000000    -1.210000000    -0.376000000
C    -2.180000000    -0.088000000    -1.821000000
C    -3.282000000    -0.038000000    -2.854000000
O    -4.328000000    -0.614000000    -2.666000000
O    -3.096000000     0.695000000    -3.873000000
O    -3.766000000     3.131000000    -3.236000000
H    -3.801000000     3.616000000    -4.061000000
H    -3.521000000     2.242000000    -3.491000000
O    -6.820000000    -4.720000000    -5.531000000
H    -6.749000000    -3.766000000    -5.497000000
H    -6.355000000    -5.023000000    -4.751000000
O    -0.794000000     2.645000000    -8.341000000
H    -0.467000000     2.222000000    -9.135000000
H    -1.745000000     2.565000000    -8.401000000
O    -7.272000000    -4.327000000    -2.489000000
H    -8.119000000    -4.066000000    -2.850000000
H    -7.404000000    -5.228000000    -2.195000000
O    -4.867000000    -5.204000000    -3.417000000
H    -4.372000000    -4.433000000    -3.693000000
H    -5.642000000    -4.848000000    -2.983000000
O    -6.448000000    -1.776000000    -0.982000000
H    -5.615000000    -1.317000000    -1.085000000
H    -6.520000000    -2.322000000    -1.765000000
O    -8.464000000    -0.644000000     0.617000000
H    -7.733000000    -1.118000000     0.222000000
H    -9.209000000    -1.239000000     0.535000000
O    -2.872000000    -1.144000000    -8.149000000
H    -1.959000000    -1.231000000    -8.422000000
H    -2.928000000    -0.266000000    -7.773000000
O    -6.791000000     0.284000000    -3.528000000
H    -7.356000000     0.555000000    -2.804000000
H    -5.971000000     0.025000000    -3.108000000
O    -5.802000000     3.865000000    -7.138000000
H    -5.084000000     3.642000000    -7.730000000
H    -5.372000000     4.083000000    -6.311000000
O    -6.223000000     3.639000000    -1.985000000
H    -5.779000000     3.502000000    -1.149000000
H    -5.549000000     3.473000000    -2.644000000
O    -6.595000000    -1.923000000    -5.635000000
H    -6.135000000    -1.322000000    -5.049000000
H    -7.516000000    -1.675000000    -5.558000000
O    -7.379000000     1.224000000    -6.037000000
H    -7.083000000     0.874000000    -5.196000000
H    -6.815000000     1.981000000    -6.193000000
O    -8.727000000     3.305000000    -3.047000000
H    -7.780000000     3.305000000    -2.909000000
H    -9.048000000     2.588000000    -2.500000000
O    -3.734000000    -2.654000000    -4.295000000
H    -4.077000000    -1.978000000    -3.709000000
H    -3.277000000    -2.167000000    -4.980000000
O    -5.142000000    -2.673000000    -7.944000000
H    -4.282000000    -2.264000000    -8.041000000
H    -5.330000000    -2.614000000    -7.007000000
O    -9.161000000     1.051000000    -1.374000000
H    -8.832000000     0.739000000    -0.531000000
H   -10.084000000     0.797000000    -1.379000000
O    -4.073000000     5.020000000    -5.250000000
H    -4.909000000     5.365000000    -4.936000000
H    -3.629000000     5.778000000    -5.631000000
O    -3.140000000     0.899000000    -6.654000000
H    -3.533000000     1.772000000    -6.643000000
H    -3.119000000     0.634000000    -5.735000000
