215
-1470.40287
C     2.662000000    -2.436000000    -4.213000000
H     2.826000000    -3.307000000    -3.583000000
C     3.012000000    -1.203000000    -3.639000000
C     2.871000000    -0.092000000    -4.530000000
H     3.123000000     0.836000000    -4.022000000
C     3.496000000    -1.080000000    -2.197000000
O     4.066000000    -2.317000000    -1.690000000
H     2.654000000    -0.791000000    -1.550000000
O     4.491000000     0.013000000    -2.071000000
C     4.428000000     1.009000000    -1.045000000
C     3.821000000     2.225000000    -1.290000000
H     3.514000000     2.433000000    -2.312000000
C     3.609000000     3.135000000    -0.235000000
O     2.830000000     4.281000000    -0.607000000
C     4.017000000     2.789000000     1.067000000
C     3.627000000     3.667000000     2.227000000
H     4.363000000     3.608000000     3.032000000
C     2.226000000     3.377000000     2.683000000
C     2.039000000     2.500000000     3.735000000
H     2.893000000     2.215000000     4.345000000
H     3.736000000     4.703000000     1.898000000
C     4.626000000     1.587000000     1.312000000
H     4.990000000     1.349000000     2.308000000
C     4.930000000     0.743000000     0.208000000
C     5.656000000    -0.580000000     0.555000000
H     6.271000000    -0.403000000     1.440000000
H     6.386000000    -0.803000000    -0.225000000
C     4.665000000    -1.704000000     0.771000000
C     4.300000000    -1.938000000     2.112000000
H     4.798000000    -1.374000000     2.897000000
C     3.961000000    -2.425000000    -0.272000000
C     3.087000000    -3.443000000     0.135000000
H     2.573000000    -4.036000000    -0.617000000
C     2.735000000    -3.653000000     1.413000000
O     1.710000000    -4.621000000     1.640000000
C     0.420000000    -4.133000000     1.831000000
C    -0.660000000    -4.961000000     1.066000000
C    -1.971000000    -5.107000000     1.610000000
H    -2.191000000    -4.958000000     2.664000000
C    -0.344000000    -5.480000000    -0.176000000
H     0.668000000    -5.336000000    -0.545000000
O     0.119000000    -4.136000000     3.255000000
H     0.251000000    -3.090000000     1.526000000
C     3.246000000    -2.839000000     2.418000000
C     2.724000000    -3.023000000     3.862000000
H     3.542000000    -2.617000000     4.461000000
H     2.618000000    -4.088000000     4.076000000
C     1.451000000    -2.264000000     4.121000000
C     1.521000000    -0.998000000     4.653000000
H     2.474000000    -0.532000000     4.892000000
C     0.203000000    -2.892000000     3.844000000
C    -0.981000000    -2.106000000     4.027000000
H    -2.004000000    -2.407000000     3.817000000
C    -0.871000000    -0.808000000     4.464000000
O    -1.944000000     0.023000000     4.407000000
C    -2.060000000     0.911000000     3.212000000
C    -3.458000000     0.922000000     2.584000000
C    -4.228000000    -0.210000000     2.602000000
H    -3.930000000    -1.104000000     3.144000000
C    -3.942000000     2.042000000     1.896000000
H    -3.285000000     2.903000000     2.000000000
O    -1.650000000     2.222000000     3.565000000
H    -1.369000000     0.631000000     2.403000000
C     0.353000000    -0.242000000     4.776000000
C     0.414000000     1.219000000     5.308000000
H     1.228000000     1.247000000     6.035000000
H    -0.437000000     1.523000000     5.920000000
C     0.729000000     2.139000000     4.135000000
C    -0.361000000     2.507000000     3.308000000
C    -0.202000000     3.512000000     2.334000000
H    -1.098000000     3.846000000     1.818000000
C     1.121000000     3.897000000     2.031000000
O     1.259000000     4.744000000     1.006000000
C     1.404000000     4.211000000    -0.310000000
H     1.026000000     3.182000000    -0.404000000
C     0.495000000     4.913000000    -1.315000000
C     0.463000000     4.426000000    -2.613000000
H     1.291000000     3.781000000    -2.893000000
C    -0.601000000     5.713000000    -0.884000000
H    -0.695000000     6.103000000     0.126000000
C    -1.667000000     5.833000000    -1.708000000
O    -2.833000000     6.554000000    -1.179000000
C    -1.647000000     5.496000000    -3.078000000
H    -2.409000000     5.769000000    -3.804000000
C    -0.556000000     4.751000000    -3.484000000
O    -0.505000000     4.512000000    -4.838000000
C     0.668000000     4.054000000    -5.378000000
C     0.795000000     2.675000000    -5.652000000
H    -0.025000000     1.964000000    -5.595000000
C     1.755000000     4.922000000    -5.570000000
H     1.730000000     5.998000000    -5.416000000
C     2.885000000     4.415000000    -6.177000000
H     3.658000000     5.081000000    -6.550000000
C     3.029000000     3.061000000    -6.498000000
H     3.982000000     2.769000000    -6.932000000
C     1.978000000     2.162000000    -6.186000000
O     2.054000000     0.861000000    -6.607000000
C     2.305000000    -0.251000000    -5.790000000
C     1.820000000    -1.470000000    -6.235000000
H     1.319000000    -1.642000000    -7.184000000
C     2.021000000    -2.557000000    -5.428000000
O     1.353000000    -3.751000000    -5.730000000
C     1.192000000    -4.800000000    -4.861000000
C     0.007000000    -5.048000000    -4.138000000
H    -0.858000000    -4.473000000    -4.459000000
C     2.347000000    -5.556000000    -4.564000000
H     3.286000000    -5.461000000    -5.103000000
C     2.281000000    -6.450000000    -3.505000000
H     3.193000000    -7.029000000    -3.380000000
C     1.135000000    -6.646000000    -2.738000000
H     1.119000000    -7.418000000    -1.973000000
C    -0.018000000    -5.953000000    -3.092000000
O    -1.153000000    -6.118000000    -2.368000000
C    -1.362000000    -5.938000000    -0.992000000
C    -2.684000000    -5.880000000    -0.538000000
H    -3.455000000    -5.983000000    -1.298000000
C    -2.945000000    -5.570000000     0.787000000
O    -4.222000000    -5.684000000     1.293000000
C    -4.936000000    -4.789000000     2.099000000
C    -5.242000000    -3.557000000     1.567000000
H    -4.865000000    -3.309000000     0.578000000
C    -5.402000000    -5.160000000     3.345000000
H    -5.145000000    -6.118000000     3.791000000
C    -6.059000000    -4.230000000     4.165000000
H    -6.509000000    -4.531000000     5.107000000
C    -6.354000000    -2.970000000     3.668000000
H    -6.928000000    -2.277000000     4.277000000
C    -5.957000000    -2.623000000     2.364000000
O    -6.322000000    -1.385000000     1.873000000
C    -5.460000000    -0.196000000     1.909000000
C    -5.926000000     0.945000000     1.251000000
H    -6.856000000     0.910000000     0.689000000
C    -5.126000000     2.059000000     1.218000000
O    -5.614000000     3.138000000     0.559000000
C    -5.161000000     4.423000000     0.603000000
C    -5.631000000     5.349000000     1.590000000
H    -6.317000000     4.997000000     2.357000000
C    -5.309000000     6.732000000     1.554000000
H    -5.809000000     7.448000000     2.201000000
C    -4.343000000     7.089000000     0.659000000
H    -4.016000000     8.116000000     0.516000000
C    -3.782000000     6.156000000    -0.265000000
C    -4.310000000     4.871000000    -0.386000000
H    -3.973000000     4.152000000    -1.128000000
C    -1.294000000     0.575000000    -1.184000000
H    -1.788000000     1.542000000    -1.155000000
C    -0.090000000     0.345000000    -0.463000000
H     0.368000000     1.209000000     0.011000000
C     0.470000000    -0.923000000    -0.397000000
H     1.439000000    -1.139000000     0.169000000
C    -0.151000000    -2.007000000    -1.097000000
H     0.319000000    -2.987000000    -1.085000000
C    -1.324000000    -1.809000000    -1.812000000
H    -1.759000000    -2.639000000    -2.364000000
C    -1.902000000    -0.525000000    -1.800000000
C    -3.204000000    -0.296000000    -2.605000000
O    -3.859000000    -1.262000000    -3.116000000
O    -3.617000000     0.828000000    -2.694000000
O    -2.381000000    -4.450000000    -6.877000000
H    -2.661000000    -4.183000000    -6.001000000
H    -2.285000000    -5.401000000    -6.817000000
O    -1.818000000    -2.168000000    -8.237000000
H    -1.972000000    -3.034000000    -7.861000000
H    -1.633000000    -1.608000000    -7.482000000
O    -5.869000000     2.044000000    -1.992000000
H    -5.606000000     2.555000000    -1.226000000
H    -5.044000000     1.792000000    -2.407000000
O    -3.414000000    -3.755000000    -4.470000000
H    -3.652000000    -4.351000000    -3.759000000
H    -4.205000000    -3.236000000    -4.621000000
O    -7.560000000    -3.919000000    -4.483000000
H    -6.888000000    -3.239000000    -4.529000000
H    -8.316000000    -3.482000000    -4.092000000
O    -5.647000000    -5.186000000    -2.741000000
H    -6.408000000    -4.961000000    -3.277000000
H    -5.591000000    -6.141000000    -2.794000000
O    -5.694000000    -2.606000000    -1.625000000
H    -4.989000000    -2.149000000    -2.084000000
H    -5.690000000    -3.488000000    -1.998000000
O    -1.177000000    -1.314000000    -5.222000000
H    -1.884000000    -1.833000000    -4.840000000
H    -0.408000000    -1.531000000    -4.695000000
O    -5.467000000     0.893000000    -4.881000000
H    -4.959000000     1.680000000    -5.080000000
H    -5.099000000     0.573000000    -4.057000000
O    -2.984000000     2.469000000    -4.699000000
H    -3.453000000     3.290000000    -4.551000000
H    -3.094000000     1.981000000    -3.883000000
O    -7.254000000    -0.529000000    -1.183000000
H    -6.631000000    -1.237000000    -1.347000000
H    -6.796000000     0.263000000    -1.464000000
O    -7.064000000     0.525000000    -6.886000000
H    -6.535000000     0.574000000    -6.089000000
H    -6.876000000    -0.343000000    -7.244000000
O    -8.571000000     3.050000000    -0.535000000
H    -7.871000000     2.763000000    -1.121000000
H    -8.561000000     4.005000000    -0.599000000
O    -5.533000000    -2.050000000    -4.851000000
H    -4.950000000    -1.742000000    -4.156000000
H    -5.572000000    -1.322000000    -5.471000000
O    -8.107000000     2.595000000    -3.827000000
H    -7.358000000     2.250000000    -3.342000000
H    -7.976000000     3.543000000    -3.826000000
O    -9.883000000    -0.633000000    -1.341000000
H    -9.039000000    -0.407000000    -0.950000000
H    -9.987000000    -1.568000000    -1.163000000
O    -4.732000000     4.770000000    -3.816000000
H    -4.893000000     4.989000000    -4.734000000
H    -5.040000000     5.534000000    -3.330000000
O    -2.126000000     1.021000000    -6.918000000
H    -2.497000000     1.470000000    -6.159000000
H    -1.732000000     0.227000000    -6.557000000
O    -3.787000000     1.946000000    -9.116000000
H    -3.663000000     1.073000000    -9.488000000
H    -3.412000000     1.887000000    -8.237000000
