215
-1462.51793
C     2.528000000    -1.669000000    -3.690000000
H     2.289000000    -2.297000000    -2.836000000
C     3.424000000    -0.619000000    -3.530000000
C     3.530000000     0.333000000    -4.596000000
H     4.257000000     1.127000000    -4.448000000
C     3.920000000    -0.302000000    -2.121000000
O     4.702000000    -1.403000000    -1.585000000
H     2.960000000    -0.273000000    -1.584000000
O     4.641000000     0.943000000    -2.039000000
C     4.302000000     1.832000000    -1.040000000
C     3.476000000     2.862000000    -1.349000000
H     3.325000000     3.047000000    -2.410000000
C     3.003000000     3.676000000    -0.301000000
O     2.073000000     4.678000000    -0.641000000
C     3.367000000     3.428000000     1.060000000
C     2.791000000     4.298000000     2.208000000
H     3.442000000     4.249000000     3.084000000
C     1.448000000     3.730000000     2.691000000
C     1.395000000     2.888000000     3.810000000
H     2.305000000     2.623000000     4.343000000
H     2.576000000     5.323000000     1.899000000
C     4.255000000     2.334000000     1.306000000
H     4.655000000     2.148000000     2.299000000
C     4.674000000     1.499000000     0.285000000
C     5.548000000     0.328000000     0.598000000
H     6.133000000     0.490000000     1.506000000
H     6.303000000     0.087000000    -0.152000000
C     4.713000000    -0.961000000     0.786000000
C     4.307000000    -1.281000000     2.072000000
H     4.611000000    -0.634000000     2.890000000
C     4.405000000    -1.810000000    -0.272000000
C     3.507000000    -2.825000000    -0.111000000
H     3.122000000    -3.480000000    -0.888000000
C     2.954000000    -3.037000000     1.157000000
O     2.089000000    -4.080000000     1.305000000
C     0.714000000    -3.773000000     1.665000000
C    -0.295000000    -4.700000000     0.925000000
C    -1.604000000    -4.756000000     1.300000000
H    -1.933000000    -4.279000000     2.220000000
C     0.077000000    -5.421000000    -0.221000000
H     1.079000000    -5.335000000    -0.633000000
O     0.520000000    -3.905000000     3.044000000
H     0.528000000    -2.768000000     1.258000000
C     3.525000000    -2.409000000     2.229000000
C     3.041000000    -2.657000000     3.655000000
H     3.741000000    -2.321000000     4.423000000
H     3.074000000    -3.737000000     3.816000000
C     1.689000000    -2.028000000     3.967000000
C     1.613000000    -0.742000000     4.592000000
H     2.478000000    -0.286000000     5.066000000
C     0.494000000    -2.682000000     3.601000000
C    -0.741000000    -2.097000000     3.877000000
H    -1.621000000    -2.618000000     3.510000000
C    -0.763000000    -0.878000000     4.488000000
O    -1.947000000    -0.274000000     4.548000000
C    -2.298000000     0.613000000     3.440000000
C    -3.654000000     0.278000000     2.865000000
C    -4.398000000    -0.776000000     3.350000000
H    -4.032000000    -1.493000000     4.081000000
C    -4.206000000     1.064000000     1.858000000
H    -3.665000000     1.914000000     1.448000000
O    -2.191000000     1.992000000     3.833000000
H    -1.587000000     0.519000000     2.606000000
C     0.396000000    -0.203000000     4.846000000
C     0.286000000     1.214000000     5.308000000
H     1.179000000     1.347000000     5.921000000
H    -0.485000000     1.400000000     6.059000000
C     0.216000000     2.207000000     4.143000000
C    -1.009000000     2.566000000     3.496000000
C    -0.967000000     3.451000000     2.435000000
H    -1.877000000     3.686000000     1.888000000
C     0.270000000     4.033000000     2.039000000
O     0.223000000     4.813000000     0.960000000
C     0.662000000     4.259000000    -0.350000000
H     0.688000000     3.166000000    -0.230000000
C    -0.364000000     4.569000000    -1.482000000
C     0.101000000     4.477000000    -2.841000000
H     1.129000000     4.166000000    -3.007000000
C    -1.712000000     4.712000000    -1.216000000
H    -2.017000000     4.806000000    -0.177000000
C    -2.604000000     4.920000000    -2.288000000
O    -3.937000000     5.216000000    -2.035000000
C    -2.098000000     4.936000000    -3.612000000
H    -2.798000000     4.980000000    -4.442000000
C    -0.739000000     4.719000000    -3.898000000
O    -0.237000000     4.716000000    -5.188000000
C     1.026000000     4.376000000    -5.597000000
C     1.289000000     3.012000000    -5.744000000
H     0.543000000     2.315000000    -5.370000000
C     1.988000000     5.296000000    -5.945000000
H     1.744000000     6.355000000    -5.923000000
C     3.251000000     4.862000000    -6.392000000
H     4.082000000     5.498000000    -6.688000000
C     3.458000000     3.504000000    -6.584000000
H     4.441000000     3.155000000    -6.887000000
C     2.500000000     2.571000000    -6.268000000
O     2.786000000     1.261000000    -6.568000000
C     2.715000000     0.256000000    -5.679000000
C     1.805000000    -0.759000000    -5.862000000
H     1.256000000    -0.811000000    -6.799000000
C     1.828000000    -1.789000000    -4.862000000
O     1.061000000    -2.929000000    -5.111000000
C     1.318000000    -4.089000000    -4.416000000
C     0.256000000    -4.722000000    -3.729000000
H    -0.723000000    -4.258000000    -3.812000000
C     2.628000000    -4.736000000    -4.459000000
H     3.412000000    -4.228000000    -5.014000000
C     2.714000000    -6.051000000    -3.801000000
H     3.612000000    -6.663000000    -3.831000000
C     1.593000000    -6.570000000    -3.144000000
H     1.570000000    -7.573000000    -2.726000000
C     0.426000000    -5.890000000    -3.037000000
O    -0.622000000    -6.426000000    -2.307000000
C    -0.916000000    -5.944000000    -1.044000000
C    -2.247000000    -6.056000000    -0.586000000
H    -3.015000000    -6.564000000    -1.164000000
C    -2.577000000    -5.464000000     0.601000000
O    -3.953000000    -5.599000000     1.008000000
C    -4.420000000    -5.044000000     2.177000000
C    -5.118000000    -3.844000000     2.168000000
H    -5.256000000    -3.270000000     1.255000000
C    -4.133000000    -5.636000000     3.425000000
H    -3.364000000    -6.404000000     3.402000000
C    -4.662000000    -5.020000000     4.603000000
H    -4.456000000    -5.482000000     5.565000000
C    -5.481000000    -3.944000000     4.554000000
H    -5.985000000    -3.519000000     5.418000000
C    -5.660000000    -3.346000000     3.327000000
O    -6.310000000    -2.132000000     3.204000000
C    -5.638000000    -1.023000000     2.843000000
C    -6.237000000    -0.163000000     1.942000000
H    -7.183000000    -0.377000000     1.452000000
C    -5.495000000     0.807000000     1.358000000
O    -6.062000000     1.559000000     0.306000000
C    -5.707000000     2.885000000     0.215000000
C    -5.935000000     3.779000000     1.291000000
H    -6.213000000     3.302000000     2.227000000
C    -5.496000000     5.073000000     1.211000000
H    -5.644000000     5.719000000     2.072000000
C    -4.824000000     5.580000000     0.135000000
H    -4.565000000     6.635000000     0.153000000
C    -4.561000000     4.717000000    -0.938000000
C    -5.053000000     3.361000000    -0.889000000
H    -4.725000000     2.635000000    -1.628000000
C    -2.113000000     0.429000000    -0.800000000
H    -3.103000000     0.872000000    -0.723000000
C    -1.134000000     0.799000000     0.107000000
H    -1.396000000     1.657000000     0.720000000
C     0.094000000     0.177000000     0.087000000
H     0.912000000     0.506000000     0.796000000
C     0.314000000    -0.816000000    -0.796000000
H     1.314000000    -1.237000000    -0.869000000
C    -0.652000000    -1.211000000    -1.694000000
H    -0.349000000    -1.957000000    -2.424000000
C    -1.866000000    -0.565000000    -1.763000000
C    -2.974000000    -1.000000000    -2.729000000
O    -2.664000000    -1.785000000    -3.658000000
O    -4.083000000    -0.590000000    -2.638000000
O    -3.794000000    -5.035000000    -7.192000000
H    -3.801000000    -4.456000000    -6.429000000
H    -4.155000000    -5.860000000    -6.869000000
O    -6.254000000     0.838000000    -2.426000000
H    -6.374000000     0.723000000    -1.484000000
H    -5.491000000     0.300000000    -2.638000000
O    -3.187000000    -4.024000000    -4.668000000
H    -3.766000000    -4.353000000    -3.980000000
H    -2.967000000    -3.135000000    -4.390000000
O    -7.220000000    -4.983000000    -4.294000000
H    -6.952000000    -4.343000000    -4.953000000
H    -8.176000000    -4.984000000    -4.334000000
O    -5.251000000    -4.827000000    -2.037000000
H    -5.936000000    -5.127000000    -2.635000000
H    -5.085000000    -5.578000000    -1.467000000
O    -5.703000000    -2.306000000    -1.217000000
H    -4.967000000    -1.720000000    -1.393000000
H    -5.374000000    -3.177000000    -1.441000000
O    -8.593000000    -3.886000000     0.162000000
H    -7.886000000    -3.958000000     0.803000000
H    -8.158000000    -3.971000000    -0.686000000
O    -2.043000000    -0.895000000    -6.235000000
H    -1.985000000    -1.123000000    -5.307000000
H    -2.253000000     0.039000000    -6.240000000
O    -4.632000000    -1.303000000    -5.887000000
H    -4.435000000    -1.289000000    -4.950000000
H    -3.780000000    -1.420000000    -6.309000000
O    -2.792000000     1.812000000    -5.237000000
H    -3.648000000     2.077000000    -4.901000000
H    -2.295000000     1.563000000    -4.458000000
O    -7.995000000    -2.547000000    -2.506000000
H    -7.200000000    -2.465000000    -1.980000000
H    -7.720000000    -2.321000000    -3.394000000
O    -7.203000000    -2.660000000    -5.898000000
H    -6.481000000    -2.196000000    -5.473000000
H    -7.189000000    -2.348000000    -6.803000000
O    -8.135000000     2.561000000    -3.143000000
H    -7.683000000     1.864000000    -2.667000000
H    -7.602000000     3.341000000    -2.988000000
O    -9.259000000    -1.151000000    -0.256000000
H    -9.441000000    -1.941000000     0.253000000
H    -9.028000000    -1.475000000    -1.127000000
O    -0.372000000    -2.930000000    -7.362000000
H    -0.679000000    -2.080000000    -7.047000000
H    -0.175000000    -3.424000000    -6.566000000
O    -2.124000000    -7.649000000    -4.634000000
H    -2.953000000    -7.426000000    -5.059000000
H    -1.696000000    -6.805000000    -4.489000000
O    -5.194000000     2.725000000    -4.410000000
H    -5.544000000     1.977000000    -3.926000000
H    -5.520000000     3.490000000    -3.937000000
O    -2.600000000     3.582000000    -7.509000000
H    -2.625000000     3.075000000    -6.698000000
H    -3.488000000     3.927000000    -7.605000000
O    -4.577000000     0.988000000    -8.485000000
H    -4.567000000     0.139000000    -8.929000000
H    -4.340000000     0.787000000    -7.580000000
