215
-1442.54490
C     3.452000000    -1.974000000    -3.440000000
H     3.570000000    -2.676000000    -2.618000000
C     3.574000000    -0.602000000    -3.133000000
C     3.316000000     0.368000000    -4.116000000
H     3.450000000     1.434000000    -3.950000000
C     4.143000000    -0.151000000    -1.728000000
O     4.997000000    -1.067000000    -1.132000000
H     3.225000000    -0.092000000    -1.125000000
O     4.647000000     1.157000000    -1.583000000
C     4.114000000     1.992000000    -0.545000000
C     3.226000000     3.003000000    -0.849000000
H     2.904000000     3.079000000    -1.884000000
C     2.555000000     3.778000000     0.138000000
O     1.473000000     4.569000000    -0.280000000
C     2.908000000     3.568000000     1.481000000
C     2.240000000     4.358000000     2.650000000
H     3.019000000     4.446000000     3.410000000
C     0.981000000     3.746000000     3.173000000
C     1.039000000     2.777000000     4.144000000
H     1.951000000     2.508000000     4.671000000
H     2.047000000     5.397000000     2.373000000
C     3.851000000     2.584000000     1.808000000
H     3.994000000     2.302000000     2.848000000
C     4.469000000     1.763000000     0.797000000
C     5.523000000     0.790000000     1.227000000
H     5.966000000     1.008000000     2.201000000
H     6.384000000     0.705000000     0.560000000
C     4.770000000    -0.550000000     1.288000000
C     4.117000000    -0.900000000     2.529000000
H     4.123000000    -0.282000000     3.423000000
C     4.637000000    -1.426000000     0.210000000
C     4.040000000    -2.713000000     0.335000000
H     3.933000000    -3.328000000    -0.555000000
C     3.460000000    -3.030000000     1.537000000
O     2.515000000    -4.088000000     1.487000000
C     1.133000000    -3.732000000     1.348000000
C     0.342000000    -4.697000000     0.512000000
C    -1.060000000    -4.817000000     0.715000000
H    -1.544000000    -4.363000000     1.576000000
C     0.907000000    -5.243000000    -0.621000000
H     1.976000000    -5.075000000    -0.734000000
O     0.513000000    -3.690000000     2.691000000
H     1.161000000    -2.737000000     0.879000000
C     3.493000000    -2.167000000     2.642000000
C     2.889000000    -2.670000000     3.895000000
H     3.601000000    -2.300000000     4.634000000
H     2.903000000    -3.761000000     3.950000000
C     1.572000000    -2.022000000     4.088000000
C     1.393000000    -0.924000000     4.940000000
H     2.254000000    -0.538000000     5.479000000
C     0.451000000    -2.549000000     3.455000000
C    -0.806000000    -2.110000000     3.742000000
H    -1.686000000    -2.620000000     3.357000000
C    -0.991000000    -1.002000000     4.485000000
O    -2.363000000    -0.447000000     4.638000000
C    -2.663000000     0.634000000     3.627000000
C    -3.953000000     0.550000000     2.764000000
C    -4.112000000    -0.522000000     1.878000000
H    -3.358000000    -1.295000000     1.759000000
C    -4.947000000     1.511000000     2.857000000
H    -4.796000000     2.393000000     3.474000000
O    -2.528000000     1.980000000     4.182000000
H    -1.915000000     0.635000000     2.821000000
C     0.131000000    -0.311000000     5.024000000
C    -0.047000000     1.077000000     5.595000000
H     0.703000000     1.376000000     6.331000000
H    -0.993000000     0.982000000     6.132000000
C    -0.153000000     2.168000000     4.534000000
C    -1.322000000     2.528000000     3.933000000
C    -1.354000000     3.460000000     2.924000000
H    -2.289000000     3.665000000     2.410000000
C    -0.189000000     4.033000000     2.476000000
O    -0.290000000     4.753000000     1.255000000
C     0.155000000     4.092000000     0.056000000
H     0.329000000     3.044000000     0.340000000
C    -0.810000000     4.130000000    -1.049000000
C    -0.336000000     3.998000000    -2.328000000
H     0.710000000     3.998000000    -2.624000000
C    -2.196000000     4.307000000    -0.744000000
H    -2.604000000     4.443000000     0.254000000
C    -3.087000000     4.404000000    -1.886000000
O    -4.455000000     4.799000000    -1.755000000
C    -2.599000000     4.108000000    -3.168000000
H    -3.296000000     4.141000000    -4.001000000
C    -1.217000000     3.933000000    -3.374000000
O    -0.839000000     3.981000000    -4.741000000
C     0.470000000     3.744000000    -5.153000000
C     0.878000000     2.474000000    -5.578000000
H     0.234000000     1.609000000    -5.444000000
C     1.368000000     4.798000000    -5.153000000
H     1.096000000     5.800000000    -4.830000000
C     2.697000000     4.471000000    -5.518000000
H     3.445000000     5.260000000    -5.519000000
C     3.102000000     3.254000000    -5.986000000
H     4.124000000     3.013000000    -6.268000000
C     2.172000000     2.257000000    -5.995000000
O     2.565000000     1.010000000    -6.369000000
C     2.833000000    -0.011000000    -5.404000000
C     2.866000000    -1.379000000    -5.752000000
H     2.734000000    -1.729000000    -6.773000000
C     3.231000000    -2.280000000    -4.773000000
O     3.472000000    -3.559000000    -5.204000000
C     3.278000000    -4.702000000    -4.550000000
C     2.116000000    -5.007000000    -3.812000000
H     1.422000000    -4.171000000    -3.782000000
C     4.251000000    -5.683000000    -4.585000000
H     5.095000000    -5.508000000    -5.247000000
C     3.994000000    -6.978000000    -4.096000000
H     4.719000000    -7.775000000    -4.240000000
C     2.812000000    -7.256000000    -3.425000000
H     2.601000000    -8.264000000    -3.078000000
C     1.876000000    -6.224000000    -3.244000000
O     0.660000000    -6.606000000    -2.693000000
C     0.143000000    -5.995000000    -1.508000000
C    -1.192000000    -6.164000000    -1.283000000
H    -1.683000000    -6.870000000    -1.949000000
C    -1.840000000    -5.559000000    -0.193000000
O    -3.134000000    -5.806000000     0.045000000
C    -4.058000000    -4.956000000     0.678000000
C    -4.485000000    -3.777000000     0.115000000
H    -4.219000000    -3.498000000    -0.902000000
C    -4.500000000    -5.335000000     1.917000000
H    -3.999000000    -6.138000000     2.452000000
C    -5.411000000    -4.494000000     2.638000000
H    -5.712000000    -4.689000000     3.664000000
C    -5.860000000    -3.313000000     2.016000000
H    -6.513000000    -2.571000000     2.469000000
C    -5.371000000    -2.925000000     0.767000000
O    -5.645000000    -1.653000000     0.286000000
C    -5.204000000    -0.556000000     1.020000000
C    -6.102000000     0.498000000     1.046000000
H    -6.922000000     0.588000000     0.338000000
C    -5.923000000     1.550000000     1.899000000
O    -6.823000000     2.550000000     1.841000000
C    -6.515000000     3.707000000     1.087000000
C    -7.030000000     4.896000000     1.478000000
H    -7.836000000     4.964000000     2.205000000
C    -6.689000000     6.075000000     0.827000000
H    -7.258000000     6.930000000     1.182000000
C    -5.705000000     6.014000000    -0.153000000
H    -5.300000000     6.872000000    -0.684000000
C    -5.142000000     4.815000000    -0.559000000
C    -5.575000000     3.615000000     0.041000000
H    -5.107000000     2.714000000    -0.349000000
C    -1.852000000     0.461000000    -1.371000000
H    -2.908000000     0.647000000    -1.549000000
C    -1.341000000     0.716000000    -0.083000000
H    -1.889000000     1.299000000     0.653000000
C    -0.035000000     0.262000000     0.206000000
H     0.300000000     0.387000000     1.194000000
C     0.654000000    -0.519000000    -0.770000000
H     1.528000000    -1.150000000    -0.627000000
C     0.159000000    -0.673000000    -2.026000000
H     0.718000000    -1.296000000    -2.718000000
C    -1.108000000    -0.271000000    -2.324000000
C    -1.727000000    -0.616000000    -3.684000000
O    -1.239000000    -1.506000000    -4.324000000
O    -2.538000000     0.095000000    -4.228000000
O     1.573000000    -1.042000000    -8.909000000
H     0.850000000    -0.617000000    -9.369000000
H     1.221000000    -1.240000000    -8.041000000
O     0.671000000     2.371000000    -8.970000000
H     0.068000000     2.377000000    -9.713000000
H     0.578000000     1.497000000    -8.593000000
O    -4.864000000     1.578000000    -3.543000000
H    -4.701000000     2.503000000    -3.726000000
H    -4.014000000     1.156000000    -3.670000000
O    -0.450000000    -4.455000000    -7.806000000
H    -0.463000000    -3.602000000    -7.373000000
H    -0.226000000    -5.073000000    -7.111000000
O    -4.912000000     3.170000000    -6.100000000
H    -5.470000000     2.413000000    -6.278000000
H    -5.499000000     3.809000000    -5.694000000
O    -4.201000000    -5.389000000    -3.181000000
H    -3.623000000    -5.295000000    -2.423000000
H    -5.037000000    -5.673000000    -2.810000000
O    -1.357000000    -4.159000000    -4.528000000
H    -1.026000000    -3.262000000    -4.579000000
H    -2.309000000    -4.065000000    -4.541000000
O    -7.103000000    -2.846000000    -2.040000000
H    -7.361000000    -2.101000000    -2.584000000
H    -6.231000000    -2.617000000    -1.719000000
O     0.024000000    -1.991000000    -6.739000000
H     0.013000000    -1.763000000    -5.809000000
H    -0.348000000    -1.225000000    -7.177000000
O    -3.508000000    -2.715000000    -5.866000000
H    -2.889000000    -2.017000000    -5.649000000
H    -3.394000000    -2.851000000    -6.807000000
O    -2.221000000     1.607000000    -6.273000000
H    -3.015000000     2.137000000    -6.207000000
H    -2.329000000     0.929000000    -5.606000000
O    -4.458000000    -2.453000000    -3.254000000
H    -4.243000000    -1.564000000    -2.973000000
H    -4.215000000    -2.476000000    -4.180000000
O    -2.621000000    -2.618000000    -8.475000000
H    -1.927000000    -3.265000000    -8.599000000
H    -2.380000000    -1.895000000    -9.055000000
O    -7.540000000     1.395000000    -2.052000000
H    -6.664000000     1.446000000    -2.435000000
H    -7.923000000     2.258000000    -2.212000000
O    -8.240000000    -1.054000000    -4.178000000
H    -7.354000000    -1.079000000    -4.538000000
H    -8.643000000    -0.287000000    -4.585000000
O     0.012000000    -6.271000000    -5.763000000
H    -0.046000000    -7.167000000    -5.432000000
H    -0.486000000    -5.750000000    -5.133000000
O    -6.504000000    -4.197000000    -4.344000000
H    -6.844000000    -3.903000000    -3.499000000
H    -5.559000000    -4.269000000    -4.211000000
O    -1.421000000     3.964000000    -7.786000000
H    -1.325000000     3.321000000    -7.084000000
H    -0.523000000     4.195000000    -8.024000000
O    -1.055000000    -0.010000000    -8.201000000
H    -1.372000000     0.587000000    -7.523000000
H    -1.648000000     0.130000000    -8.939000000
