215
-1454.33557
C     3.747000000    -0.702000000    -3.734000000
H     4.513000000    -1.303000000    -3.252000000
C     3.336000000     0.434000000    -3.066000000
C     2.305000000     1.200000000    -3.602000000
H     1.994000000     2.073000000    -3.034000000
C     3.838000000     0.677000000    -1.681000000
O     4.891000000    -0.228000000    -1.318000000
H     2.998000000     0.549000000    -0.983000000
O     4.231000000     2.065000000    -1.520000000
C     3.872000000     2.681000000    -0.351000000
C     2.919000000     3.666000000    -0.551000000
H     2.564000000     3.912000000    -1.549000000
C     2.231000000     4.159000000     0.561000000
O     1.068000000     4.885000000     0.367000000
C     2.708000000     3.829000000     1.854000000
C     2.101000000     4.452000000     3.090000000
H     2.850000000     4.308000000     3.871000000
C     0.815000000     3.578000000     3.463000000
C     1.011000000     2.529000000     4.384000000
H     1.984000000     2.242000000     4.774000000
H     1.887000000     5.499000000     2.868000000
C     3.792000000     2.949000000     2.057000000
H     4.157000000     2.671000000     3.043000000
C     4.315000000     2.294000000     0.944000000
C     5.309000000     1.153000000     1.128000000
H     5.757000000     1.230000000     2.121000000
H     6.118000000     1.387000000     0.433000000
C     4.822000000    -0.256000000     1.035000000
C     4.383000000    -0.929000000     2.185000000
H     4.327000000    -0.332000000     3.092000000
C     4.769000000    -0.950000000    -0.153000000
C     4.298000000    -2.247000000    -0.201000000
H     4.303000000    -2.791000000    -1.142000000
C     3.914000000    -2.941000000     0.919000000
O     3.123000000    -4.053000000     0.869000000
C     1.700000000    -3.810000000     0.934000000
C     0.970000000    -4.449000000    -0.299000000
C    -0.420000000    -4.365000000    -0.219000000
H    -0.949000000    -4.003000000     0.659000000
C     1.605000000    -4.882000000    -1.452000000
H     2.683000000    -5.011000000    -1.502000000
O     1.102000000    -4.201000000     2.195000000
H     1.478000000    -2.735000000     0.852000000
C     3.954000000    -2.269000000     2.191000000
C     3.407000000    -2.852000000     3.477000000
H     4.019000000    -2.546000000     4.328000000
H     3.521000000    -3.937000000     3.444000000
C     2.001000000    -2.459000000     3.750000000
C     1.718000000    -1.400000000     4.655000000
H     2.506000000    -0.906000000     5.217000000
C     0.928000000    -3.114000000     3.134000000
C    -0.360000000    -2.686000000     3.361000000
H    -1.216000000    -3.206000000     2.938000000
C    -0.636000000    -1.677000000     4.312000000
O    -1.914000000    -1.221000000     4.437000000
C    -2.351000000    -0.204000000     3.522000000
C    -3.782000000    -0.664000000     3.027000000
C    -4.198000000    -1.996000000     3.011000000
H    -3.554000000    -2.707000000     3.522000000
C    -4.541000000     0.250000000     2.378000000
H    -4.252000000     1.285000000     2.545000000
O    -2.408000000     1.044000000     4.216000000
H    -1.608000000    -0.200000000     2.711000000
C     0.413000000    -0.941000000     4.883000000
C     0.196000000     0.380000000     5.563000000
H     1.041000000     0.463000000     6.250000000
H    -0.658000000     0.424000000     6.242000000
C    -0.070000000     1.599000000     4.727000000
C    -1.292000000     1.870000000     4.149000000
C    -1.444000000     3.061000000     3.407000000
H    -2.464000000     3.258000000     3.085000000
C    -0.463000000     3.903000000     2.968000000
O    -0.592000000     4.825000000     1.924000000
C    -0.257000000     4.336000000     0.657000000
H    -0.094000000     3.250000000     0.715000000
C    -1.307000000     4.794000000    -0.364000000
C    -0.946000000     5.264000000    -1.590000000
H     0.099000000     5.406000000    -1.853000000
C    -2.678000000     4.722000000    -0.050000000
H    -2.956000000     4.312000000     0.917000000
C    -3.661000000     5.012000000    -0.982000000
O    -4.993000000     4.839000000    -0.882000000
C    -3.254000000     5.258000000    -2.259000000
H    -4.012000000     5.351000000    -3.033000000
C    -1.921000000     5.403000000    -2.596000000
O    -1.564000000     5.620000000    -3.889000000
C    -0.485000000     5.001000000    -4.521000000
C    -0.490000000     3.649000000    -4.706000000
H    -1.318000000     2.964000000    -4.546000000
C     0.554000000     5.868000000    -4.829000000
H     0.577000000     6.908000000    -4.512000000
C     1.641000000     5.367000000    -5.501000000
H     2.530000000     5.929000000    -5.778000000
C     1.763000000     4.007000000    -5.685000000
H     2.648000000     3.591000000    -6.160000000
C     0.691000000     3.143000000    -5.307000000
O     0.863000000     1.803000000    -5.518000000
C     1.788000000     0.949000000    -4.872000000
C     2.161000000    -0.219000000    -5.528000000
H     1.727000000    -0.539000000    -6.471000000
C     3.104000000    -1.067000000    -4.892000000
O     3.577000000    -2.126000000    -5.704000000
C     3.645000000    -3.470000000    -5.250000000
C     2.596000000    -4.025000000    -4.606000000
H     1.768000000    -3.377000000    -4.331000000
C     4.751000000    -4.252000000    -5.583000000
H     5.647000000    -3.745000000    -5.933000000
C     4.808000000    -5.600000000    -5.189000000
H     5.745000000    -6.090000000    -5.442000000
C     3.657000000    -6.140000000    -4.516000000
H     3.721000000    -7.199000000    -4.281000000
C     2.550000000    -5.358000000    -4.205000000
O     1.393000000    -5.844000000    -3.621000000
C     0.803000000    -5.381000000    -2.521000000
C    -0.611000000    -5.347000000    -2.407000000
H    -1.167000000    -5.790000000    -3.230000000
C    -1.221000000    -4.755000000    -1.334000000
O    -2.635000000    -4.599000000    -1.293000000
C    -3.479000000    -5.038000000    -0.282000000
C    -4.193000000    -4.125000000     0.481000000
H    -4.259000000    -3.078000000     0.194000000
C    -3.471000000    -6.403000000     0.071000000
H    -2.758000000    -7.043000000    -0.442000000
C    -4.334000000    -6.840000000     1.076000000
H    -4.478000000    -7.899000000     1.273000000
C    -5.144000000    -5.957000000     1.822000000
H    -5.754000000    -6.296000000     2.655000000
C    -5.001000000    -4.599000000     1.554000000
O    -5.760000000    -3.692000000     2.238000000
C    -5.365000000    -2.358000000     2.420000000
C    -6.151000000    -1.385000000     1.907000000
H    -7.072000000    -1.740000000     1.452000000
C    -5.793000000    -0.078000000     1.867000000
O    -6.593000000     0.762000000     1.081000000
C    -6.497000000     2.114000000     1.009000000
C    -7.081000000     2.810000000     2.061000000
H    -7.620000000     2.273000000     2.838000000
C    -7.046000000     4.218000000     2.151000000
H    -7.668000000     4.814000000     2.813000000
C    -6.341000000     4.866000000     1.136000000
H    -6.202000000     5.941000000     1.218000000
C    -5.616000000     4.159000000     0.169000000
C    -5.670000000     2.804000000     0.075000000
H    -5.247000000     2.270000000    -0.772000000
C    -1.478000000     0.311000000    -0.024000000
H    -2.384000000     0.796000000     0.331000000
C    -0.324000000     0.414000000     0.799000000
H    -0.341000000     1.145000000     1.604000000
C     0.841000000    -0.254000000     0.461000000
H     1.756000000    -0.214000000     1.097000000
C     0.845000000    -1.061000000    -0.643000000
H     1.746000000    -1.586000000    -0.952000000
C    -0.311000000    -1.138000000    -1.453000000
H    -0.305000000    -1.785000000    -2.326000000
C    -1.464000000    -0.446000000    -1.139000000
C    -2.643000000    -0.499000000    -2.128000000
O    -2.441000000    -0.933000000    -3.191000000
O    -3.549000000     0.201000000    -1.884000000
O    -4.616000000    -5.086000000    -5.896000000
H    -4.208000000    -4.446000000    -5.312000000
H    -5.503000000    -4.754000000    -6.032000000
O    -6.313000000    -2.420000000    -4.410000000
H    -6.222000000    -1.956000000    -3.578000000
H    -7.033000000    -3.035000000    -4.264000000
O    -6.143000000    -0.850000000    -2.026000000
H    -6.892000000    -0.283000000    -1.845000000
H    -5.413000000    -0.437000000    -1.564000000
O    -3.181000000    -2.646000000    -8.273000000
H    -3.287000000    -1.695000000    -8.316000000
H    -2.872000000    -2.812000000    -7.382000000
O    -5.880000000     4.640000000    -4.603000000
H    -5.404000000     4.660000000    -5.434000000
H    -5.795000000     3.736000000    -4.300000000
O    -4.229000000    -7.356000000    -4.011000000
H    -3.334000000    -7.108000000    -4.244000000
H    -4.727000000    -6.541000000    -4.073000000
O    -1.386000000    -2.854000000    -6.031000000
H    -1.211000000    -1.917000000    -5.951000000
H    -1.850000000    -3.081000000    -5.224000000
O    -1.096000000    -0.361000000    -5.331000000
H    -0.422000000     0.255000000    -5.044000000
H    -1.554000000    -0.607000000    -4.528000000
O    -4.542000000    -0.482000000    -4.904000000
H    -5.093000000    -1.262000000    -4.828000000
H    -3.994000000    -0.499000000    -4.120000000
O    -5.597000000     2.042000000    -3.986000000
H    -5.447000000     1.786000000    -4.896000000
H    -5.426000000     1.247000000    -3.482000000
O    -3.186000000    -3.460000000    -3.921000000
H    -2.901000000    -3.913000000    -3.127000000
H    -2.994000000    -2.538000000    -3.752000000
O    -7.961000000     4.029000000    -2.187000000
H    -7.092000000     4.402000000    -2.041000000
H    -8.110000000     4.128000000    -3.127000000
O    -9.221000000    -0.587000000    -0.529000000
H   -10.114000000    -0.387000000    -0.249000000
H    -9.033000000     0.058000000    -1.210000000
O    -7.689000000    -4.014000000    -1.100000000
H    -7.066000000    -4.740000000    -1.097000000
H    -7.142000000    -3.229000000    -1.097000000
O    -8.202000000    -0.311000000    -6.127000000
H    -7.807000000    -1.110000000    -5.778000000
H    -8.608000000    -0.584000000    -6.949000000
O    -6.118000000     1.394000000    -7.186000000
H    -6.621000000     0.855000000    -6.575000000
H    -6.690000000     2.138000000    -7.376000000
O    -8.119000000     1.242000000    -2.350000000
H    -8.509000000     1.480000000    -3.191000000
H    -7.798000000     2.070000000    -1.992000000
O    -0.353000000    -5.546000000    -6.550000000
H    -0.792000000    -4.809000000    -6.125000000
H     0.441000000    -5.167000000    -6.927000000
O    -3.085000000     0.038000000    -7.324000000
H    -3.768000000     0.048000000    -6.653000000
H    -2.270000000    -0.078000000    -6.835000000
