215
-1447.91035
C     3.733000000     0.295000000    -4.343000000
H     4.524000000    -0.347000000    -3.965000000
C     3.132000000     1.143000000    -3.472000000
C     2.071000000     1.895000000    -3.920000000
H     1.627000000     2.564000000    -3.187000000
C     3.545000000     1.334000000    -2.035000000
O     4.758000000     0.566000000    -1.867000000
H     2.719000000     0.913000000    -1.444000000
O     3.723000000     2.696000000    -1.704000000
C     3.278000000     3.134000000    -0.493000000
C     2.131000000     3.862000000    -0.484000000
H     1.806000000     3.967000000    -1.516000000
C     1.479000000     4.192000000     0.702000000
O     0.247000000     4.789000000     0.611000000
C     2.058000000     3.860000000     1.927000000
C     1.391000000     4.128000000     3.234000000
H     2.186000000     4.182000000     3.982000000
C     0.364000000     3.002000000     3.663000000
C     0.801000000     1.983000000     4.521000000
H     1.825000000     2.012000000     4.887000000
H     0.944000000     5.124000000     3.228000000
C     3.257000000     3.158000000     1.898000000
H     3.687000000     2.930000000     2.870000000
C     3.936000000     2.889000000     0.701000000
C     5.213000000     1.975000000     0.718000000
H     5.819000000     2.077000000     1.620000000
H     5.805000000     2.204000000    -0.171000000
C     4.930000000     0.512000000     0.623000000
C     4.821000000    -0.274000000     1.754000000
H     4.981000000     0.118000000     2.755000000
C     4.810000000    -0.085000000    -0.645000000
C     4.514000000    -1.443000000    -0.734000000
H     4.219000000    -1.662000000    -1.757000000
C     4.282000000    -2.157000000     0.406000000
O     3.733000000    -3.399000000     0.261000000
C     2.302000000    -3.535000000     0.580000000
C     1.543000000    -4.182000000    -0.573000000
C     0.181000000    -4.465000000    -0.376000000
H    -0.320000000    -4.339000000     0.580000000
C     2.053000000    -4.113000000    -1.827000000
H     3.070000000    -3.809000000    -2.058000000
O     2.032000000    -4.156000000     1.854000000
H     1.888000000    -2.535000000     0.776000000
C     4.440000000    -1.610000000     1.698000000
C     4.054000000    -2.357000000     2.975000000
H     4.530000000    -2.104000000     3.924000000
H     4.286000000    -3.424000000     2.973000000
C     2.530000000    -2.262000000     3.255000000
C     2.199000000    -1.290000000     4.147000000
H     2.841000000    -0.538000000     4.599000000
C     1.673000000    -3.236000000     2.789000000
C     0.342000000    -3.210000000     3.160000000
H    -0.284000000    -3.975000000     2.708000000
C    -0.064000000    -2.261000000     4.092000000
O    -1.403000000    -2.179000000     4.378000000
C    -2.154000000    -1.191000000     3.622000000
C    -3.581000000    -1.626000000     3.303000000
C    -3.848000000    -2.968000000     3.131000000
H    -3.095000000    -3.750000000     3.199000000
C    -4.630000000    -0.669000000     3.111000000
H    -4.516000000     0.404000000     3.249000000
O    -2.330000000     0.031000000     4.418000000
H    -1.599000000    -0.943000000     2.705000000
C     0.828000000    -1.245000000     4.577000000
C     0.440000000    -0.150000000     5.587000000
H     1.208000000     0.050000000     6.336000000
H    -0.310000000    -0.687000000     6.172000000
C    -0.132000000     1.018000000     4.856000000
C    -1.445000000     1.050000000     4.322000000
C    -1.857000000     2.108000000     3.515000000
H    -2.881000000     2.108000000     3.150000000
C    -0.949000000     3.105000000     3.230000000
O    -1.369000000     4.051000000     2.308000000
C    -0.929000000     4.023000000     0.902000000
H    -0.675000000     2.966000000     0.734000000
C    -2.028000000     4.331000000    -0.052000000
C    -1.831000000     4.912000000    -1.316000000
H    -0.837000000     5.243000000    -1.605000000
C    -3.301000000     3.895000000     0.293000000
H    -3.521000000     3.481000000     1.274000000
C    -4.349000000     3.968000000    -0.608000000
O    -5.597000000     3.368000000    -0.464000000
C    -4.147000000     4.588000000    -1.818000000
H    -4.962000000     4.684000000    -2.530000000
C    -2.855000000     4.997000000    -2.194000000
O    -2.584000000     5.571000000    -3.449000000
C    -1.402000000     5.341000000    -4.097000000
C    -1.098000000     4.057000000    -4.584000000
H    -1.879000000     3.317000000    -4.433000000
C    -0.402000000     6.305000000    -4.273000000
H    -0.625000000     7.306000000    -3.914000000
C     0.813000000     5.997000000    -4.781000000
H     1.516000000     6.808000000    -4.950000000
C     1.130000000     4.695000000    -5.228000000
H     2.092000000     4.526000000    -5.704000000
C     0.196000000     3.692000000    -5.117000000
O     0.465000000     2.457000000    -5.582000000
C     1.590000000     1.794000000    -5.247000000
C     2.131000000     0.851000000    -6.064000000
H     1.649000000     0.745000000    -7.033000000
C     3.226000000     0.132000000    -5.667000000
O     3.661000000    -0.917000000    -6.465000000
C     3.834000000    -2.201000000    -5.923000000
C     2.717000000    -2.775000000    -5.428000000
H     1.801000000    -2.189000000    -5.418000000
C     5.037000000    -2.913000000    -6.068000000
H     5.944000000    -2.517000000    -6.518000000
C     5.101000000    -4.170000000    -5.556000000
H     6.070000000    -4.648000000    -5.666000000
C     4.078000000    -4.718000000    -4.843000000
H     4.117000000    -5.751000000    -4.507000000
C     2.838000000    -4.014000000    -4.831000000
O     1.723000000    -4.590000000    -4.271000000
C     1.249000000    -4.483000000    -2.906000000
C    -0.116000000    -4.763000000    -2.734000000
H    -0.744000000    -4.999000000    -3.589000000
C    -0.666000000    -4.677000000    -1.438000000
O    -2.035000000    -4.998000000    -1.347000000
C    -2.650000000    -5.517000000    -0.212000000
C    -3.744000000    -4.858000000     0.376000000
H    -4.053000000    -3.881000000     0.011000000
C    -2.179000000    -6.678000000     0.360000000
H    -1.320000000    -7.134000000    -0.127000000
C    -2.931000000    -7.358000000     1.275000000
H    -2.792000000    -8.419000000     1.469000000
C    -3.989000000    -6.668000000     1.924000000
H    -4.629000000    -7.172000000     2.644000000
C    -4.435000000    -5.405000000     1.447000000
O    -5.340000000    -4.700000000     2.273000000
C    -5.117000000    -3.420000000     2.699000000
C    -6.140000000    -2.492000000     2.544000000
H    -7.095000000    -2.793000000     2.122000000
C    -5.866000000    -1.130000000     2.717000000
O    -6.894000000    -0.230000000     2.463000000
C    -6.649000000     1.123000000     2.214000000
C    -6.946000000     1.974000000     3.255000000
H    -7.438000000     1.614000000     4.155000000
C    -6.698000000     3.298000000     3.068000000
H    -6.846000000     4.035000000     3.853000000
C    -6.289000000     3.742000000     1.793000000
H    -6.154000000     4.815000000     1.692000000
C    -5.982000000     2.896000000     0.762000000
C    -6.198000000     1.570000000     0.971000000
H    -6.040000000     0.763000000     0.260000000
C    -1.403000000     0.361000000     0.066000000
H    -2.317000000     0.897000000     0.312000000
C    -0.223000000     0.334000000     0.857000000
H    -0.275000000     0.912000000     1.776000000
C     0.947000000    -0.177000000     0.364000000
H     1.855000000    -0.180000000     1.009000000
C     0.980000000    -0.726000000    -0.879000000
H     1.871000000    -1.274000000    -1.175000000
C    -0.069000000    -0.707000000    -1.740000000
H    -0.038000000    -1.099000000    -2.754000000
C    -1.305000000    -0.220000000    -1.243000000
C    -2.469000000    -0.071000000    -2.152000000
O    -2.530000000    -0.672000000    -3.184000000
O    -3.483000000     0.495000000    -1.764000000
O    -5.422000000    -3.926000000    -6.842000000
H    -5.233000000    -3.290000000    -7.531000000
H    -6.201000000    -4.390000000    -7.150000000
O    -6.548000000    -4.297000000    -3.171000000
H    -6.755000000    -3.655000000    -3.850000000
H    -5.621000000    -4.154000000    -2.980000000
O    -5.705000000    -1.168000000    -2.020000000
H    -5.002000000    -0.556000000    -1.804000000
H    -5.289000000    -1.821000000    -2.583000000
O    -8.009000000     0.809000000    -4.541000000
H    -7.452000000     0.949000000    -5.307000000
H    -7.544000000     1.240000000    -3.824000000
O    -4.832000000    -2.139000000    -8.893000000
H    -4.018000000    -1.959000000    -8.422000000
H    -5.328000000    -1.323000000    -8.834000000
O    -7.409000000     3.611000000    -5.766000000
H    -8.042000000     4.286000000    -5.520000000
H    -6.557000000     4.041000000    -5.688000000
O    -4.528000000     3.102000000    -7.878000000
H    -4.914000000     2.307000000    -7.509000000
H    -4.699000000     3.778000000    -7.222000000
O    -3.652000000    -4.814000000    -4.942000000
H    -3.456000000    -4.057000000    -4.389000000
H    -4.227000000    -4.469000000    -5.625000000
O    -1.764000000    -5.012000000    -6.856000000
H    -2.396000000    -5.198000000    -6.162000000
H    -2.015000000    -5.595000000    -7.573000000
O    -1.276000000    -1.389000000    -5.327000000
H    -0.506000000    -0.822000000    -5.354000000
H    -1.705000000    -1.173000000    -4.499000000
O    -3.697000000     0.330000000    -6.559000000
H    -3.237000000     0.160000000    -7.381000000
H    -3.137000000    -0.058000000    -5.886000000
O    -4.578000000     2.051000000    -3.761000000
H    -4.252000000     1.401000000    -4.384000000
H    -4.350000000     1.694000000    -2.902000000
O    -3.594000000    -3.007000000    -2.682000000
H    -2.941000000    -3.515000000    -2.201000000
H    -3.139000000    -2.200000000    -2.923000000
O    -7.991000000    -2.501000000    -1.312000000
H    -7.568000000    -3.247000000    -0.887000000
H    -7.265000000    -1.964000000    -1.631000000
O    -3.489000000     6.409000000     1.944000000
H    -2.737000000     6.820000000     2.371000000
H    -3.173000000     5.543000000     1.685000000
O    -2.446000000    -2.312000000    -7.645000000
H    -2.033000000    -2.076000000    -6.814000000
H    -2.352000000    -3.263000000    -7.697000000
O    -7.023000000    -2.305000000    -5.231000000
H    -7.226000000    -1.369000000    -5.210000000
H    -6.901000000    -2.502000000    -6.160000000
O    -7.301000000     2.930000000    -2.960000000
H    -7.618000000     3.392000000    -3.736000000
H    -6.351000000     2.893000000    -3.074000000
O    -5.144000000     4.768000000    -5.279000000
H    -5.022000000     5.553000000    -5.813000000
H    -4.266000000     4.554000000    -4.964000000
