215
-1448.74901
C     3.930000000     0.115000000    -3.823000000
H     4.247000000    -0.764000000    -3.268000000
C     3.825000000     1.376000000    -3.161000000
C     3.537000000     2.506000000    -3.935000000
H     3.530000000     3.526000000    -3.561000000
C     3.998000000     1.442000000    -1.666000000
O     4.979000000     0.512000000    -1.199000000
H     3.011000000     1.097000000    -1.324000000
O     4.241000000     2.789000000    -1.199000000
C     3.638000000     3.206000000    -0.103000000
C     2.451000000     3.928000000    -0.291000000
H     2.113000000     4.218000000    -1.282000000
C     1.693000000     4.347000000     0.772000000
O     0.410000000     4.865000000     0.586000000
C     2.055000000     3.971000000     2.012000000
C     1.167000000     4.293000000     3.209000000
H     1.843000000     4.335000000     4.066000000
C     0.036000000     3.272000000     3.532000000
C     0.240000000     2.336000000     4.453000000
H     1.218000000     2.306000000     4.925000000
H     0.749000000     5.302000000     3.183000000
C     3.163000000     3.177000000     2.204000000
H     3.421000000     2.902000000     3.224000000
C     4.035000000     2.814000000     1.148000000
C     5.102000000     1.785000000     1.431000000
H     5.488000000     1.958000000     2.438000000
H     5.979000000     1.902000000     0.791000000
C     4.609000000     0.364000000     1.255000000
C     4.249000000    -0.317000000     2.369000000
H     4.496000000     0.105000000     3.340000000
C     4.676000000    -0.225000000    -0.030000000
C     4.166000000    -1.514000000    -0.164000000
H     4.145000000    -2.020000000    -1.126000000
C     3.732000000    -2.188000000     0.974000000
O     3.032000000    -3.363000000     0.752000000
C     1.614000000    -3.494000000     1.038000000
C     0.927000000    -4.167000000    -0.123000000
C    -0.243000000    -4.957000000     0.132000000
H    -0.554000000    -5.145000000     1.157000000
C     1.335000000    -4.009000000    -1.452000000
H     2.205000000    -3.422000000    -1.737000000
O     1.344000000    -4.017000000     2.365000000
H     1.153000000    -2.497000000     1.095000000
C     3.736000000    -1.610000000     2.199000000
C     3.422000000    -2.341000000     3.451000000
H     4.072000000    -2.057000000     4.281000000
H     3.595000000    -3.404000000     3.269000000
C     1.944000000    -2.209000000     3.811000000
C     1.472000000    -1.119000000     4.610000000
H     2.091000000    -0.247000000     4.806000000
C     1.021000000    -3.139000000     3.322000000
C    -0.347000000    -3.008000000     3.608000000
H    -1.093000000    -3.668000000     3.172000000
C    -0.744000000    -1.915000000     4.298000000
O    -2.149000000    -1.818000000     4.378000000
C    -2.638000000    -0.867000000     3.482000000
C    -3.945000000    -1.370000000     2.969000000
C    -4.102000000    -2.678000000     2.615000000
H    -3.397000000    -3.451000000     2.908000000
C    -4.884000000    -0.393000000     2.544000000
H    -4.740000000     0.655000000     2.792000000
O    -2.869000000     0.349000000     4.271000000
H    -1.938000000    -0.737000000     2.643000000
C     0.133000000    -0.975000000     4.903000000
C    -0.353000000     0.225000000     5.655000000
H     0.396000000     0.476000000     6.409000000
H    -1.261000000    -0.158000000     6.127000000
C    -0.741000000     1.335000000     4.738000000
C    -1.979000000     1.350000000     4.110000000
C    -2.166000000     2.324000000     3.140000000
H    -3.148000000     2.314000000     2.675000000
C    -1.228000000     3.288000000     2.912000000
O    -1.517000000     3.997000000     1.756000000
C    -0.675000000     3.841000000     0.568000000
H    -0.188000000     2.857000000     0.632000000
C    -1.415000000     3.866000000    -0.713000000
C    -0.951000000     4.453000000    -1.921000000
H     0.054000000     4.863000000    -1.983000000
C    -2.699000000     3.261000000    -0.698000000
H    -3.126000000     2.873000000     0.224000000
C    -3.470000000     3.101000000    -1.826000000
O    -4.538000000     2.200000000    -1.875000000
C    -3.098000000     3.830000000    -2.940000000
H    -3.602000000     3.824000000    -3.903000000
C    -1.797000000     4.433000000    -3.034000000
O    -1.323000000     4.684000000    -4.258000000
C    -0.040000000     5.012000000    -4.638000000
C     0.757000000     4.075000000    -5.318000000
H     0.402000000     3.069000000    -5.524000000
C     0.504000000     6.221000000    -4.232000000
H    -0.162000000     6.901000000    -3.706000000
C     1.856000000     6.527000000    -4.566000000
H     2.332000000     7.491000000    -4.407000000
C     2.641000000     5.629000000    -5.322000000
H     3.667000000     5.924000000    -5.527000000
C     2.116000000     4.350000000    -5.582000000
O     2.876000000     3.335000000    -6.123000000
C     3.232000000     2.283000000    -5.329000000
C     3.216000000     1.083000000    -5.935000000
H     3.009000000     1.075000000    -7.002000000
C     3.628000000    -0.018000000    -5.185000000
O     3.799000000    -1.188000000    -5.843000000
C     3.678000000    -2.437000000    -5.304000000
C     2.379000000    -2.936000000    -5.001000000
H     1.589000000    -2.295000000    -5.384000000
C     4.859000000    -2.991000000    -4.684000000
H     5.868000000    -2.616000000    -4.839000000
C     4.687000000    -4.161000000    -3.999000000
H     5.613000000    -4.644000000    -3.698000000
C     3.405000000    -4.643000000    -3.669000000
H     3.239000000    -5.515000000    -3.041000000
C     2.292000000    -4.061000000    -4.204000000
O     1.009000000    -4.336000000    -3.789000000
C     0.641000000    -4.625000000    -2.509000000
C    -0.446000000    -5.478000000    -2.273000000
H    -1.017000000    -5.825000000    -3.131000000
C    -0.956000000    -5.578000000    -1.010000000
O    -2.048000000    -6.370000000    -0.859000000
C    -2.906000000    -6.364000000     0.226000000
C    -3.754000000    -5.300000000     0.487000000
H    -3.892000000    -4.411000000    -0.123000000
C    -2.876000000    -7.459000000     1.085000000
H    -2.171000000    -8.208000000     0.732000000
C    -3.832000000    -7.617000000     2.145000000
H    -3.820000000    -8.423000000     2.874000000
C    -4.705000000    -6.479000000     2.388000000
H    -5.416000000    -6.503000000     3.210000000
C    -4.670000000    -5.375000000     1.635000000
O    -5.588000000    -4.368000000     1.823000000
C    -5.265000000    -3.057000000     2.046000000
C    -6.295000000    -2.171000000     1.781000000
H    -7.208000000    -2.516000000     1.303000000
C    -6.108000000    -0.842000000     2.044000000
O    -7.044000000     0.022000000     1.522000000
C    -6.650000000     1.185000000     0.878000000
C    -7.047000000     2.426000000     1.352000000
H    -7.741000000     2.431000000     2.189000000
C    -6.787000000     3.612000000     0.718000000
H    -7.134000000     4.579000000     1.074000000
C    -5.911000000     3.562000000    -0.395000000
H    -5.703000000     4.541000000    -0.819000000
C    -5.452000000     2.323000000    -0.843000000
C    -5.880000000     1.139000000    -0.233000000
H    -5.612000000     0.157000000    -0.616000000
C    -1.890000000    -0.571000000    -0.134000000
H    -2.934000000    -0.444000000     0.140000000
C    -0.770000000    -0.002000000     0.497000000
H    -0.856000000     0.559000000     1.424000000
C     0.459000000    -0.073000000    -0.028000000
H     1.334000000     0.510000000     0.385000000
C     0.646000000    -0.818000000    -1.181000000
H     1.637000000    -0.740000000    -1.621000000
C    -0.442000000    -1.348000000    -1.857000000
H    -0.399000000    -1.758000000    -2.863000000
C    -1.724000000    -1.169000000    -1.340000000
C    -2.915000000    -1.743000000    -2.028000000
O    -2.713000000    -2.451000000    -3.021000000
O    -4.034000000    -1.414000000    -1.647000000
O    -6.571000000    -3.185000000    -7.111000000
H    -6.686000000    -2.250000000    -7.282000000
H    -6.294000000    -3.229000000    -6.196000000
O    -6.278000000    -5.012000000    -1.847000000
H    -6.418000000    -4.203000000    -1.356000000
H    -5.420000000    -4.898000000    -2.257000000
O    -6.523000000    -2.338000000    -1.136000000
H    -5.642000000    -2.052000000    -1.380000000
H    -7.104000000    -1.849000000    -1.719000000
O    -6.006000000     2.187000000    -5.405000000
H    -5.859000000     1.520000000    -4.734000000
H    -5.128000000     2.429000000    -5.699000000
O    -3.778000000    -1.001000000    -6.561000000
H    -4.377000000    -0.615000000    -5.921000000
H    -3.642000000    -0.310000000    -7.209000000
O    -2.845000000    -4.826000000    -7.599000000
H    -2.391000000    -4.857000000    -6.757000000
H    -2.143000000    -4.846000000    -8.250000000
O    -1.366000000    -4.596000000    -5.530000000
H    -1.313000000    -3.641000000    -5.522000000
H    -0.554000000    -4.886000000    -5.115000000
O    -7.502000000    -6.798000000    -3.516000000
H    -6.955000000    -6.073000000    -3.212000000
H    -7.759000000    -7.255000000    -2.715000000
O    -0.128000000     1.661000000    -3.405000000
H     0.611000000     1.930000000    -2.860000000
H    -0.804000000     1.398000000    -2.780000000
O    -2.027000000     1.326000000    -5.496000000
H    -1.228000000     1.341000000    -4.968000000
H    -2.109000000     0.416000000    -5.779000000
O    -4.955000000    -0.188000000    -4.038000000
H    -5.733000000    -0.231000000    -3.482000000
H    -4.223000000    -0.329000000    -3.438000000
O     0.136000000    -2.121000000    -7.603000000
H    -0.079000000    -1.347000000    -8.124000000
H    -0.101000000    -1.880000000    -6.708000000
O    -4.115000000    -4.848000000    -3.624000000
H    -3.529000000    -4.114000000    -3.441000000
H    -4.752000000    -4.496000000    -4.247000000
O    -8.210000000    -5.581000000     0.526000000
H    -7.644000000    -6.171000000     1.023000000
H    -7.661000000    -5.274000000    -0.196000000
O    -5.573000000    -2.731000000    -4.625000000
H    -6.330000000    -2.221000000    -4.335000000
H    -4.845000000    -2.110000000    -4.604000000
O    -3.789000000    -7.659000000    -3.169000000
H    -4.363000000    -7.882000000    -2.436000000
H    -3.701000000    -6.707000000    -3.122000000
O    -1.460000000    -1.676000000    -5.327000000
H    -1.758000000    -1.591000000    -4.421000000
H    -2.263000000    -1.642000000    -5.847000000
O    -7.648000000    -1.361000000    -3.384000000
H    -8.019000000    -2.219000000    -3.593000000
H    -8.115000000    -0.752000000    -3.957000000
O    -5.519000000    -7.734000000    -1.032000000
H    -5.606000000    -6.840000000    -0.701000000
H    -5.146000000    -8.225000000    -0.300000000
