215
-1417.04152
C     2.919000000     0.538000000    -3.526000000
H     3.014000000    -0.367000000    -2.931000000
C     3.163000000     1.737000000    -2.969000000
C     2.777000000     2.894000000    -3.644000000
H     3.107000000     3.843000000    -3.230000000
C     3.686000000     1.727000000    -1.502000000
O     4.787000000     0.811000000    -1.259000000
H     2.810000000     1.314000000    -0.981000000
O     3.969000000     3.026000000    -1.015000000
C     3.319000000     3.536000000     0.076000000
C     2.170000000     4.321000000    -0.146000000
H     1.846000000     4.544000000    -1.160000000
C     1.244000000     4.480000000     0.922000000
O    -0.070000000     4.873000000     0.621000000
C     1.680000000     4.103000000     2.246000000
C     0.808000000     4.333000000     3.411000000
H     1.499000000     4.376000000     4.256000000
C    -0.129000000     3.142000000     3.670000000
C     0.226000000     2.063000000     4.512000000
H     1.176000000     2.096000000     5.041000000
H     0.108000000     5.160000000     3.276000000
C     2.856000000     3.391000000     2.437000000
H     3.098000000     2.970000000     3.409000000
C     3.639000000     3.038000000     1.328000000
C     4.943000000     2.269000000     1.510000000
H     5.322000000     2.382000000     2.528000000
H     5.618000000     2.479000000     0.678000000
C     4.767000000     0.770000000     1.257000000
C     4.530000000    -0.055000000     2.351000000
H     4.538000000     0.345000000     3.362000000
C     4.695000000     0.177000000    -0.065000000
C     4.554000000    -1.221000000    -0.110000000
H     4.523000000    -1.763000000    -1.052000000
C     4.323000000    -1.997000000     0.993000000
O     3.874000000    -3.272000000     0.781000000
C     2.481000000    -3.607000000     0.798000000
C     1.887000000    -4.393000000    -0.335000000
C     0.515000000    -4.675000000    -0.388000000
H    -0.206000000    -4.436000000     0.390000000
C     2.607000000    -4.585000000    -1.486000000
H     3.625000000    -4.206000000    -1.449000000
O     2.153000000    -4.094000000     2.058000000
H     2.035000000    -2.612000000     0.653000000
C     4.257000000    -1.375000000     2.212000000
C     3.855000000    -2.161000000     3.406000000
H     4.171000000    -1.656000000     4.321000000
H     4.356000000    -3.131000000     3.423000000
C     2.396000000    -2.355000000     3.667000000
C     1.810000000    -1.401000000     4.521000000
H     2.358000000    -0.575000000     4.966000000
C     1.560000000    -3.255000000     2.973000000
C     0.123000000    -3.284000000     3.190000000
H    -0.552000000    -3.883000000     2.585000000
C    -0.423000000    -2.335000000     4.065000000
O    -1.806000000    -2.220000000     4.172000000
C    -2.509000000    -1.209000000     3.404000000
C    -3.723000000    -1.830000000     2.830000000
C    -3.689000000    -3.153000000     2.329000000
H    -2.877000000    -3.852000000     2.511000000
C    -4.869000000    -1.040000000     2.548000000
H    -4.828000000     0.040000000     2.670000000
O    -2.835000000    -0.017000000     4.085000000
H    -1.858000000    -0.887000000     2.578000000
C     0.401000000    -1.335000000     4.738000000
C    -0.257000000    -0.243000000     5.549000000
H     0.397000000     0.082000000     6.361000000
H    -1.072000000    -0.705000000     6.111000000
C    -0.658000000     0.987000000     4.688000000
C    -1.908000000     1.002000000     4.044000000
C    -2.207000000     2.024000000     3.155000000
H    -3.179000000     1.998000000     2.669000000
C    -1.300000000     3.037000000     2.988000000
O    -1.609000000     3.894000000     2.006000000
C    -1.024000000     3.840000000     0.671000000
H    -0.504000000     2.881000000     0.531000000
C    -2.062000000     3.951000000    -0.442000000
C    -1.695000000     4.568000000    -1.635000000
H    -0.645000000     4.816000000    -1.766000000
C    -3.348000000     3.336000000    -0.281000000
H    -3.517000000     2.751000000     0.619000000
C    -4.180000000     3.297000000    -1.424000000
O    -5.410000000     2.688000000    -1.462000000
C    -3.857000000     4.091000000    -2.545000000
H    -4.478000000     4.264000000    -3.421000000
C    -2.619000000     4.721000000    -2.632000000
O    -2.266000000     5.175000000    -3.868000000
C    -0.968000000     5.511000000    -4.200000000
C    -0.275000000     4.609000000    -4.966000000
H    -0.801000000     3.741000000    -5.356000000
C    -0.340000000     6.701000000    -3.704000000
H    -0.894000000     7.497000000    -3.214000000
C     1.053000000     6.796000000    -3.823000000
H     1.540000000     7.655000000    -3.368000000
C     1.743000000     5.847000000    -4.583000000
H     2.814000000     5.974000000    -4.725000000
C     1.074000000     4.768000000    -5.011000000
O     1.881000000     3.804000000    -5.681000000
C     2.282000000     2.721000000    -4.951000000
C     2.062000000     1.472000000    -5.508000000
H     1.603000000     1.268000000    -6.471000000
C     2.396000000     0.384000000    -4.781000000
O     2.094000000    -0.850000000    -5.310000000
C     2.851000000    -1.937000000    -5.150000000
C     2.363000000    -3.219000000    -4.695000000
H     1.336000000    -3.381000000    -4.379000000
C     4.117000000    -1.841000000    -5.731000000
H     4.548000000    -0.882000000    -6.004000000
C     4.945000000    -2.941000000    -5.742000000
H     5.949000000    -2.814000000    -6.138000000
C     4.535000000    -4.100000000    -5.111000000
H     5.220000000    -4.914000000    -4.888000000
C     3.257000000    -4.231000000    -4.590000000
O     2.967000000    -5.235000000    -3.731000000
C     2.079000000    -5.101000000    -2.670000000
C     0.817000000    -5.697000000    -2.631000000
H     0.429000000    -6.288000000    -3.457000000
C     0.010000000    -5.337000000    -1.514000000
O    -1.227000000    -5.949000000    -1.570000000
C    -2.010000000    -6.296000000    -0.443000000
C    -3.026000000    -5.456000000    -0.056000000
H    -3.152000000    -4.512000000    -0.579000000
C    -1.749000000    -7.484000000     0.159000000
H    -1.005000000    -8.198000000    -0.187000000
C    -2.562000000    -7.914000000     1.167000000
H    -2.416000000    -8.831000000     1.732000000
C    -3.638000000    -7.111000000     1.487000000
H    -4.369000000    -7.450000000     2.217000000
C    -3.863000000    -5.843000000     0.981000000
O    -4.883000000    -5.077000000     1.454000000
C    -4.795000000    -3.734000000     1.732000000
C    -5.956000000    -2.877000000     1.503000000
H    -6.886000000    -3.343000000     1.190000000
C    -5.982000000    -1.530000000     1.852000000
O    -7.013000000    -0.667000000     1.507000000
C    -6.758000000     0.628000000     1.222000000
C    -7.158000000     1.517000000     2.233000000
H    -7.581000000     1.295000000     3.209000000
C    -6.983000000     2.933000000     1.926000000
H    -7.133000000     3.660000000     2.720000000
C    -6.441000000     3.291000000     0.693000000
H    -6.177000000     4.342000000     0.610000000
C    -6.088000000     2.385000000    -0.285000000
C    -6.222000000     1.020000000    -0.022000000
H    -6.048000000     0.282000000    -0.800000000
C    -3.239000000    -1.729000000    -1.395000000
H    -4.309000000    -1.777000000    -1.208000000
C    -2.528000000    -0.842000000    -0.577000000
H    -2.984000000    -0.257000000     0.217000000
C    -1.154000000    -0.595000000    -0.842000000
H    -0.526000000     0.049000000    -0.167000000
C    -0.546000000    -1.320000000    -1.915000000
H     0.502000000    -1.256000000    -2.194000000
C    -1.321000000    -2.222000000    -2.605000000
H    -0.766000000    -2.737000000    -3.385000000
C    -2.657000000    -2.369000000    -2.497000000
C    -3.283000000    -3.139000000    -3.598000000
O    -2.665000000    -3.414000000    -4.579000000
O    -4.481000000    -3.265000000    -3.542000000
O    -2.588000000    -0.457000000    -7.733000000
H    -3.183000000    -1.001000000    -7.216000000
H    -2.614000000     0.399000000    -7.305000000
O    -6.720000000    -3.511000000    -2.139000000
H    -6.482000000    -4.252000000    -1.582000000
H    -5.934000000    -3.338000000    -2.656000000
O    -6.004000000    -7.351000000    -3.245000000
H    -6.336000000    -6.812000000    -2.527000000
H    -6.544000000    -8.141000000    -3.222000000
O    -4.236000000    -1.689000000    -5.978000000
H    -4.314000000    -1.332000000    -5.094000000
H    -4.025000000    -2.613000000    -5.846000000
O    -4.842000000     0.494000000    -4.016000000
H    -5.317000000     1.095000000    -3.442000000
H    -3.920000000     0.648000000    -3.813000000
O    -7.979000000    -2.882000000    -6.839000000
H    -7.378000000    -3.513000000    -7.237000000
H    -7.959000000    -3.090000000    -5.904000000
O    -6.577000000     0.537000000    -6.150000000
H    -6.088000000     0.870000000    -5.398000000
H    -6.045000000    -0.186000000    -6.482000000
O    -0.979000000    -4.556000000    -7.872000000
H    -0.998000000    -4.185000000    -8.754000000
H    -0.746000000    -3.820000000    -7.307000000
O    -6.131000000    -4.853000000    -7.539000000
H    -5.816000000    -4.705000000    -6.647000000
H    -5.336000000    -4.886000000    -8.070000000
O    -8.433000000    -4.138000000    -4.319000000
H    -7.671000000    -4.711000000    -4.400000000
H    -8.250000000    -3.603000000    -3.546000000
O    -1.740000000     0.138000000    -4.347000000
H    -1.542000000     0.051000000    -3.415000000
H    -1.343000000    -0.634000000    -4.750000000
O    -2.991000000     1.737000000    -6.305000000
H    -2.450000000     1.378000000    -5.601000000
H    -3.106000000     2.658000000    -6.073000000
O    -5.922000000    -4.800000000    -4.976000000
H    -5.208000000    -5.438000000    -4.948000000
H    -5.663000000    -4.124000000    -4.350000000
O     0.802000000    -2.146000000    -8.085000000
H     0.507000000    -1.327000000    -8.484000000
H     0.606000000    -2.042000000    -7.154000000
O    -3.417000000    -5.804000000    -5.305000000
H    -3.063000000    -4.931000000    -5.134000000
H    -3.499000000    -5.847000000    -6.258000000
O    -3.697000000    -4.779000000    -8.531000000
H    -3.805000000    -3.849000000    -8.733000000
H    -2.792000000    -4.972000000    -8.773000000
O    -3.113000000    -7.949000000    -2.890000000
H    -3.793000000    -7.425000000    -3.314000000
H    -2.745000000    -7.370000000    -2.222000000
O    -1.013000000    -2.177000000    -6.120000000
H    -1.584000000    -1.609000000    -6.636000000
H    -1.613000000    -2.716000000    -5.604000000
O    -6.692000000    -5.899000000    -0.613000000
H    -7.451000000    -6.103000000    -0.067000000
H    -5.972000000    -5.791000000     0.009000000
