215
-1456.67450
C     2.431000000     0.076000000    -3.792000000
H     2.618000000    -0.687000000    -3.040000000
C     2.633000000     1.414000000    -3.379000000
C     2.322000000     2.440000000    -4.291000000
H     2.517000000     3.476000000    -4.028000000
C     3.281000000     1.708000000    -2.042000000
O     4.374000000     0.753000000    -1.804000000
H     2.470000000     1.465000000    -1.340000000
O     3.636000000     3.108000000    -1.833000000
C     3.174000000     3.560000000    -0.651000000
C     1.978000000     4.203000000    -0.686000000
H     1.522000000     4.418000000    -1.649000000
C     1.243000000     4.386000000     0.489000000
O     0.047000000     5.011000000     0.454000000
C     1.872000000     4.111000000     1.690000000
C     1.191000000     4.492000000     3.010000000
H     1.857000000     4.849000000     3.798000000
C     0.216000000     3.410000000     3.499000000
C     0.719000000     2.412000000     4.332000000
H     1.678000000     2.559000000     4.822000000
H     0.476000000     5.299000000     2.840000000
C     3.141000000     3.542000000     1.772000000
H     3.544000000     3.342000000     2.762000000
C     3.772000000     3.207000000     0.578000000
C     5.039000000     2.362000000     0.564000000
H     5.625000000     2.674000000     1.431000000
H     5.660000000     2.577000000    -0.307000000
C     4.675000000     0.900000000     0.630000000
C     4.652000000     0.225000000     1.878000000
H     4.895000000     0.805000000     2.765000000
C     4.476000000     0.146000000    -0.566000000
C     4.266000000    -1.216000000    -0.522000000
H     4.106000000    -1.837000000    -1.400000000
C     4.251000000    -1.849000000     0.719000000
O     3.911000000    -3.163000000     0.598000000
C     2.534000000    -3.517000000     0.782000000
C     1.940000000    -4.620000000    -0.129000000
C     0.833000000    -5.314000000     0.265000000
H     0.482000000    -5.136000000     1.278000000
C     2.503000000    -4.847000000    -1.348000000
H     3.400000000    -4.290000000    -1.603000000
O     2.393000000    -3.930000000     2.160000000
H     1.981000000    -2.586000000     0.586000000
C     4.417000000    -1.166000000     1.921000000
C     4.322000000    -2.030000000     3.180000000
H     5.051000000    -1.684000000     3.916000000
H     4.532000000    -3.091000000     3.027000000
C     2.904000000    -2.035000000     3.660000000
C     2.345000000    -1.059000000     4.549000000
H     2.948000000    -0.279000000     5.006000000
C     2.052000000    -2.990000000     3.101000000
C     0.686000000    -3.043000000     3.462000000
H     0.042000000    -3.787000000     3.002000000
C     0.191000000    -2.043000000     4.297000000
O    -1.253000000    -1.992000000     4.495000000
C    -1.995000000    -1.148000000     3.550000000
C    -3.291000000    -1.746000000     3.027000000
C    -3.429000000    -3.126000000     2.849000000
H    -2.685000000    -3.836000000     3.201000000
C    -4.366000000    -0.902000000     2.633000000
H    -4.313000000     0.156000000     2.877000000
O    -2.243000000     0.086000000     4.208000000
H    -1.337000000    -1.030000000     2.677000000
C     0.988000000    -1.013000000     4.780000000
C     0.375000000     0.207000000     5.521000000
H     0.883000000     0.833000000     6.257000000
H    -0.494000000    -0.127000000     6.091000000
C    -0.120000000     1.305000000     4.554000000
C    -1.440000000     1.210000000     4.035000000
C    -1.884000000     2.148000000     3.095000000
H    -2.842000000     2.004000000     2.601000000
C    -1.026000000     3.266000000     2.898000000
O    -1.528000000     4.160000000     1.978000000
C    -1.063000000     4.154000000     0.589000000
H    -0.727000000     3.115000000     0.457000000
C    -2.149000000     4.356000000    -0.414000000
C    -1.852000000     4.942000000    -1.662000000
H    -0.845000000     5.268000000    -1.912000000
C    -3.479000000     3.782000000    -0.252000000
H    -3.649000000     3.309000000     0.713000000
C    -4.503000000     3.937000000    -1.166000000
O    -5.790000000     3.422000000    -0.971000000
C    -4.155000000     4.547000000    -2.378000000
H    -4.884000000     4.521000000    -3.184000000
C    -2.844000000     5.050000000    -2.616000000
O    -2.538000000     5.489000000    -3.889000000
C    -1.343000000     5.517000000    -4.516000000
C    -0.621000000     4.343000000    -4.801000000
H    -0.995000000     3.392000000    -4.431000000
C    -0.965000000     6.720000000    -5.051000000
H    -1.455000000     7.647000000    -4.765000000
C     0.120000000     6.772000000    -5.900000000
H     0.500000000     7.721000000    -6.270000000
C     0.887000000     5.610000000    -6.219000000
H     1.820000000     5.643000000    -6.777000000
C     0.482000000     4.333000000    -5.736000000
O     1.065000000     3.147000000    -6.183000000
C     1.602000000     2.169000000    -5.428000000
C     1.444000000     0.881000000    -5.808000000
H     0.803000000     0.633000000    -6.650000000
C     1.918000000    -0.184000000    -5.070000000
O     1.567000000    -1.453000000    -5.495000000
C     2.308000000    -2.492000000    -5.177000000
C     1.812000000    -3.643000000    -4.612000000
H     0.760000000    -3.749000000    -4.360000000
C     3.659000000    -2.429000000    -5.572000000
H     4.017000000    -1.531000000    -6.069000000
C     4.565000000    -3.471000000    -5.353000000
H     5.597000000    -3.317000000    -5.657000000
C     4.096000000    -4.533000000    -4.586000000
H     4.743000000    -5.378000000    -4.361000000
C     2.748000000    -4.637000000    -4.209000000
O     2.331000000    -5.756000000    -3.516000000
C     1.893000000    -5.734000000    -2.262000000
C     0.791000000    -6.481000000    -1.835000000
H     0.284000000    -7.190000000    -2.485000000
C     0.286000000    -6.258000000    -0.581000000
O    -0.876000000    -6.862000000    -0.212000000
C    -1.723000000    -6.606000000     0.856000000
C    -2.776000000    -5.738000000     0.854000000
H    -3.002000000    -5.134000000    -0.021000000
C    -1.477000000    -7.453000000     1.994000000
H    -0.565000000    -8.044000000     1.966000000
C    -2.327000000    -7.469000000     3.137000000
H    -2.246000000    -8.041000000     4.058000000
C    -3.438000000    -6.640000000     3.046000000
H    -4.194000000    -6.580000000     3.824000000
C    -3.614000000    -5.793000000     1.944000000
O    -4.723000000    -4.999000000     1.956000000
C    -4.478000000    -3.654000000     2.127000000
C    -5.454000000    -2.790000000     1.666000000
H    -6.276000000    -3.195000000     1.081000000
C    -5.441000000    -1.448000000     1.952000000
O    -6.516000000    -0.683000000     1.523000000
C    -6.474000000     0.690000000     1.393000000
C    -6.938000000     1.418000000     2.525000000
H    -7.172000000     0.870000000     3.434000000
C    -7.075000000     2.793000000     2.393000000
H    -7.558000000     3.379000000     3.171000000
C    -6.749000000     3.433000000     1.218000000
H    -6.898000000     4.489000000     1.010000000
C    -6.190000000     2.689000000     0.166000000
C    -6.093000000     1.295000000     0.250000000
H    -5.786000000     0.727000000    -0.624000000
C    -3.176000000    -0.937000000    -0.605000000
H    -4.260000000    -0.854000000    -0.595000000
C    -2.354000000     0.054000000    -0.064000000
H    -2.796000000     0.911000000     0.438000000
C    -0.969000000    -0.033000000    -0.088000000
H    -0.332000000     0.831000000     0.177000000
C    -0.423000000    -1.106000000    -0.781000000
H     0.648000000    -1.106000000    -0.965000000
C    -1.219000000    -2.057000000    -1.320000000
H    -0.830000000    -2.824000000    -1.985000000
C    -2.645000000    -2.054000000    -1.227000000
C    -3.568000000    -3.097000000    -1.869000000
O    -3.207000000    -4.146000000    -2.371000000
O    -4.732000000    -2.838000000    -1.998000000
O    -8.829000000    -0.957000000     0.077000000
H    -8.993000000    -1.898000000     0.145000000
H    -7.997000000    -0.826000000     0.532000000
O    -2.987000000     1.831000000    -5.720000000
H    -3.065000000     1.340000000    -6.538000000
H    -2.415000000     1.294000000    -5.172000000
O    -2.541000000    -9.242000000    -2.264000000
H    -2.505000000    -8.310000000    -2.478000000
H    -2.950000000    -9.273000000    -1.399000000
O    -5.543000000    -5.393000000    -1.146000000
H    -5.259000000    -4.747000000    -1.793000000
H    -5.040000000    -5.182000000    -0.360000000
O    -8.145000000    -5.285000000     0.471000000
H    -7.273000000    -5.236000000     0.079000000
H    -8.512000000    -6.104000000     0.139000000
O    -4.978000000    -0.438000000    -3.638000000
H    -5.121000000    -1.240000000    -3.135000000
H    -5.709000000     0.131000000    -3.396000000
O    -6.658000000    -0.436000000    -7.213000000
H    -7.036000000     0.292000000    -6.721000000
H    -5.861000000    -0.662000000    -6.733000000
O    -7.448000000     0.997000000    -3.185000000
H    -8.136000000     1.148000000    -2.536000000
H    -7.279000000     1.861000000    -3.560000000
O    -2.157000000    -0.153000000    -3.683000000
H    -3.038000000     0.220000000    -3.703000000
H    -1.932000000    -0.187000000    -2.754000000
O    -1.463000000    -4.163000000    -7.717000000
H    -1.516000000    -3.482000000    -7.047000000
H    -1.631000000    -4.978000000    -7.244000000
O    -4.008000000    -4.074000000    -4.937000000
H    -4.761000000    -4.658000000    -5.025000000
H    -3.844000000    -4.035000000    -3.994000000
O    -1.633000000    -2.290000000    -5.404000000
H    -1.397000000    -1.550000000    -4.844000000
H    -2.085000000    -2.898000000    -4.819000000
O    -4.578000000    -1.479000000    -5.934000000
H    -4.667000000    -1.034000000    -5.091000000
H    -4.227000000    -2.342000000    -5.714000000
O    -3.601000000    -6.786000000    -3.088000000
H    -4.202000000    -6.920000000    -2.355000000
H    -3.138000000    -5.976000000    -2.873000000
O    -7.003000000    -6.729000000    -5.926000000
H    -6.553000000    -7.534000000    -5.668000000
H    -6.666000000    -6.063000000    -5.328000000
O    -6.675000000    -4.517000000    -4.087000000
H    -7.609000000    -4.321000000    -4.016000000
H    -6.243000000    -3.795000000    -3.632000000
O    -2.454000000    -6.809000000    -5.739000000
H    -2.887000000    -6.469000000    -4.956000000
H    -1.881000000    -7.504000000    -5.414000000
O    -8.990000000    -3.674000000    -3.206000000
H    -9.813000000    -4.125000000    -3.393000000
H    -9.065000000    -2.838000000    -3.665000000
O    -7.568000000    -7.171000000    -2.044000000
H    -6.804000000    -6.610000000    -1.913000000
H    -8.179000000    -6.631000000    -2.545000000
