215
-1442.75961
C     2.435000000    -1.824000000    -4.672000000
H     2.776000000    -2.690000000    -4.111000000
C     2.691000000    -0.530000000    -4.224000000
C     2.155000000     0.572000000    -4.869000000
H     2.197000000     1.516000000    -4.331000000
C     3.300000000    -0.313000000    -2.799000000
O     4.026000000    -1.448000000    -2.406000000
H     2.434000000    -0.271000000    -2.121000000
O     4.029000000     0.969000000    -2.701000000
C     3.815000000     1.700000000    -1.529000000
C     3.123000000     2.913000000    -1.527000000
H     2.589000000     3.259000000    -2.408000000
C     3.066000000     3.672000000    -0.350000000
O     2.073000000     4.592000000    -0.299000000
C     3.789000000     3.278000000     0.802000000
C     3.575000000     3.947000000     2.114000000
H     4.476000000     3.708000000     2.681000000
C     2.373000000     3.315000000     2.872000000
C     2.488000000     2.293000000     3.822000000
H     3.507000000     1.970000000     4.020000000
H     3.469000000     5.027000000     1.989000000
C     4.471000000     2.077000000     0.739000000
H     5.114000000     1.750000000     1.552000000
C     4.467000000     1.240000000    -0.385000000
C     5.327000000    -0.048000000    -0.405000000
H     6.192000000     0.075000000     0.250000000
H     5.815000000    -0.253000000    -1.360000000
C     4.572000000    -1.303000000    -0.088000000
C     4.508000000    -1.730000000     1.233000000
H     4.860000000    -1.093000000     2.040000000
C     3.926000000    -1.966000000    -1.116000000
C     3.240000000    -3.137000000    -0.789000000
H     2.670000000    -3.668000000    -1.548000000
C     3.121000000    -3.568000000     0.549000000
O     2.293000000    -4.633000000     0.839000000
C     0.977000000    -4.208000000     1.257000000
C    -0.182000000    -4.835000000     0.519000000
C    -1.444000000    -5.039000000     1.093000000
H    -1.521000000    -4.710000000     2.126000000
C    -0.059000000    -5.249000000    -0.840000000
H     0.910000000    -5.223000000    -1.332000000
O     0.826000000    -4.408000000     2.737000000
H     0.855000000    -3.130000000     1.072000000
C     3.735000000    -2.872000000     1.562000000
C     3.493000000    -3.230000000     3.054000000
H     4.232000000    -2.753000000     3.702000000
H     3.526000000    -4.321000000     3.076000000
C     2.254000000    -2.552000000     3.631000000
C     2.391000000    -1.368000000     4.361000000
H     3.327000000    -0.816000000     4.353000000
C     0.940000000    -3.217000000     3.563000000
C    -0.124000000    -2.596000000     4.190000000
H    -1.130000000    -2.993000000     4.080000000
C     0.003000000    -1.298000000     4.693000000
O    -1.175000000    -0.658000000     4.890000000
C    -1.513000000     0.468000000     3.986000000
C    -2.964000000     0.499000000     3.598000000
C    -3.411000000    -0.616000000     2.865000000
H    -2.744000000    -1.465000000     2.737000000
C    -3.740000000     1.664000000     3.774000000
H    -3.270000000     2.552000000     4.189000000
O    -1.090000000     1.737000000     4.533000000
H    -0.982000000     0.274000000     3.042000000
C     1.306000000    -0.711000000     4.937000000
C     1.372000000     0.645000000     5.479000000
H     2.404000000     0.648000000     5.836000000
H     0.584000000     0.738000000     6.229000000
C     1.305000000     1.740000000     4.418000000
C     0.064000000     2.324000000     4.070000000
C    -0.056000000     3.358000000     3.166000000
H    -1.003000000     3.827000000     2.913000000
C     1.104000000     3.870000000     2.581000000
O     0.856000000     4.738000000     1.549000000
C     0.810000000     4.127000000     0.267000000
H     0.699000000     3.035000000     0.346000000
C    -0.382000000     4.539000000    -0.591000000
C    -0.357000000     4.371000000    -1.986000000
H     0.557000000     3.980000000    -2.424000000
C    -1.576000000     4.988000000    -0.053000000
H    -1.687000000     4.939000000     1.027000000
C    -2.693000000     5.264000000    -0.811000000
O    -3.901000000     5.630000000    -0.339000000
C    -2.573000000     5.243000000    -2.205000000
H    -3.275000000     5.727000000    -2.879000000
C    -1.393000000     4.770000000    -2.785000000
O    -1.366000000     4.591000000    -4.123000000
C    -0.290000000     4.324000000    -4.922000000
C    -0.119000000     3.057000000    -5.460000000
H    -0.878000000     2.296000000    -5.300000000
C     0.686000000     5.276000000    -5.282000000
H     0.665000000     6.297000000    -4.910000000
C     1.822000000     4.969000000    -6.007000000
H     2.547000000     5.763000000    -6.164000000
C     1.886000000     3.755000000    -6.620000000
H     2.743000000     3.549000000    -7.256000000
C     0.912000000     2.762000000    -6.355000000
O     0.913000000     1.425000000    -6.762000000
C     1.503000000     0.385000000    -6.093000000
C     1.359000000    -0.915000000    -6.593000000
H     0.869000000    -1.011000000    -7.559000000
C     1.635000000    -2.009000000    -5.832000000
O     1.247000000    -3.291000000    -6.238000000
C     1.169000000    -4.407000000    -5.357000000
C     0.050000000    -4.573000000    -4.521000000
H    -0.614000000    -3.716000000    -4.432000000
C     2.110000000    -5.442000000    -5.609000000
H     2.908000000    -5.238000000    -6.318000000
C     1.949000000    -6.683000000    -5.016000000
H     2.621000000    -7.507000000    -5.238000000
C     0.876000000    -6.860000000    -4.153000000
H     0.624000000    -7.826000000    -3.724000000
C     0.022000000    -5.765000000    -3.784000000
O    -1.045000000    -6.112000000    -3.000000000
C    -1.186000000    -5.747000000    -1.624000000
C    -2.273000000    -6.064000000    -0.913000000
H    -3.131000000    -6.516000000    -1.404000000
C    -2.448000000    -5.779000000     0.437000000
O    -3.648000000    -6.125000000     1.111000000
C    -4.364000000    -5.200000000     1.795000000
C    -4.419000000    -3.895000000     1.270000000
H    -3.953000000    -3.643000000     0.321000000
C    -5.130000000    -5.522000000     2.948000000
H    -4.947000000    -6.519000000     3.339000000
C    -5.793000000    -4.500000000     3.625000000
H    -6.367000000    -4.640000000     4.538000000
C    -5.819000000    -3.232000000     3.136000000
H    -6.436000000    -2.479000000     3.621000000
C    -5.170000000    -2.938000000     2.019000000
O    -5.215000000    -1.600000000     1.543000000
C    -4.699000000    -0.521000000     2.221000000
C    -5.467000000     0.616000000     2.392000000
H    -6.446000000     0.703000000     1.928000000
C    -5.029000000     1.711000000     3.106000000
O    -5.736000000     2.858000000     3.152000000
C    -5.219000000     4.065000000     2.705000000
C    -5.326000000     5.184000000     3.479000000
H    -5.758000000     5.120000000     4.474000000
C    -4.922000000     6.413000000     2.967000000
H    -5.122000000     7.272000000     3.602000000
C    -4.433000000     6.595000000     1.715000000
H    -4.131000000     7.566000000     1.333000000
C    -4.340000000     5.427000000     0.928000000
C    -4.608000000     4.154000000     1.421000000
H    -4.509000000     3.306000000     0.748000000
C    -1.975000000     0.224000000    -0.067000000
H    -2.998000000     0.586000000    -0.123000000
C    -1.020000000     0.920000000     0.640000000
H    -1.366000000     1.747000000     1.255000000
C     0.284000000     0.473000000     0.721000000
H     0.936000000     0.983000000     1.363000000
C     0.621000000    -0.653000000     0.086000000
H     1.665000000    -0.955000000     0.114000000
C    -0.284000000    -1.403000000    -0.650000000
H     0.021000000    -2.239000000    -1.276000000
C    -1.589000000    -0.907000000    -0.796000000
C    -2.541000000    -1.497000000    -1.871000000
O    -2.231000000    -2.467000000    -2.446000000
O    -3.577000000    -0.852000000    -2.032000000
O    -4.533000000    -5.223000000    -7.222000000
H    -4.347000000    -5.462000000    -6.313000000
H    -3.674000000    -5.037000000    -7.601000000
O    -4.841000000     2.377000000    -5.700000000
H    -4.566000000     2.137000000    -4.815000000
H    -4.512000000     1.669000000    -6.253000000
O    -1.904000000     0.790000000    -7.334000000
H    -1.029000000     1.160000000    -7.222000000
H    -1.875000000    -0.042000000    -6.862000000
O    -6.172000000    -0.966000000    -0.941000000
H    -5.329000000    -0.976000000    -1.395000000
H    -5.966000000    -1.243000000    -0.048000000
O    -4.057000000     1.187000000    -3.313000000
H    -3.940000000     0.324000000    -2.916000000
H    -3.166000000     1.508000000    -3.455000000
O    -5.772000000     2.905000000    -1.802000000
H    -5.565000000     3.607000000    -2.419000000
H    -5.107000000     2.236000000    -1.968000000
O    -1.082000000     1.388000000    -2.693000000
H    -0.285000000     0.862000000    -2.760000000
H    -1.010000000     1.825000000    -1.845000000
O    -1.245000000    -2.230000000    -7.939000000
H    -1.348000000    -2.444000000    -7.012000000
H    -2.105000000    -2.405000000    -8.322000000
O    -8.486000000    -0.035000000     0.274000000
H    -7.813000000    -0.545000000    -0.177000000
H    -8.446000000     0.830000000    -0.135000000
O    -2.105000000    -1.126000000    -5.477000000
H    -1.692000000    -1.043000000    -4.618000000
H    -2.814000000    -1.755000000    -5.342000000
O    -5.741000000    -1.086000000    -6.437000000
H    -6.609000000    -1.490000000    -6.443000000
H    -5.436000000    -1.188000000    -5.535000000
O    -7.577000000     2.489000000     0.042000000
H    -6.818000000     2.599000000    -0.530000000
H    -7.906000000     3.378000000     0.177000000
O    -4.302000000    -4.180000000    -2.577000000
H    -4.019000000    -5.023000000    -2.932000000
H    -3.493000000    -3.676000000    -2.484000000
O    -6.867000000    -3.970000000    -0.787000000
H    -7.223000000    -3.136000000    -1.092000000
H    -6.017000000    -4.041000000    -1.221000000
O    -8.953000000    -2.496000000    -2.463000000
H    -9.458000000    -3.082000000    -1.898000000
H    -8.622000000    -3.063000000    -3.160000000
O    -7.895000000     0.752000000    -2.837000000
H    -7.194000000     0.633000000    -2.196000000
H    -8.060000000    -0.128000000    -3.177000000
O    -7.548000000    -3.895000000    -4.797000000
H    -6.667000000    -3.521000000    -4.785000000
H    -7.432000000    -4.770000000    -5.167000000
O    -4.385000000    -2.069000000    -4.358000000
H    -4.084000000    -1.385000000    -3.760000000
H    -4.619000000    -2.800000000    -3.787000000
O    -4.318000000    -6.072000000    -4.622000000
H    -3.761000000    -6.793000000    -4.916000000
H    -5.024000000    -6.498000000    -4.136000000
