215
-1465.66115
C     2.462000000    -1.332000000    -4.514000000
H     2.826000000    -2.232000000    -4.026000000
C     2.695000000    -0.057000000    -3.968000000
C     2.455000000     1.100000000    -4.744000000
H     2.531000000     2.060000000    -4.240000000
C     3.220000000     0.014000000    -2.574000000
O     3.896000000    -1.189000000    -2.287000000
H     2.381000000     0.142000000    -1.875000000
O     4.188000000     1.009000000    -2.469000000
C     4.103000000     1.782000000    -1.302000000
C     3.310000000     2.961000000    -1.289000000
H     2.712000000     3.327000000    -2.120000000
C     3.183000000     3.586000000    -0.044000000
O     2.213000000     4.566000000    -0.005000000
C     3.704000000     3.048000000     1.130000000
C     3.401000000     3.645000000     2.439000000
H     4.134000000     3.455000000     3.226000000
C     2.154000000     3.150000000     3.045000000
C     2.176000000     1.985000000     3.810000000
H     3.138000000     1.526000000     4.023000000
H     3.363000000     4.721000000     2.256000000
C     4.505000000     1.903000000     1.123000000
H     4.950000000     1.454000000     2.008000000
C     4.710000000     1.296000000    -0.153000000
C     5.458000000    -0.054000000    -0.155000000
H     6.251000000     0.022000000     0.592000000
H     6.030000000    -0.148000000    -1.080000000
C     4.597000000    -1.295000000     0.060000000
C     4.399000000    -1.884000000     1.290000000
H     4.919000000    -1.488000000     2.159000000
C     3.857000000    -1.757000000    -1.036000000
C     3.157000000    -2.953000000    -0.936000000
H     2.817000000    -3.504000000    -1.809000000
C     2.939000000    -3.508000000     0.337000000
O     2.050000000    -4.534000000     0.360000000
C     0.787000000    -4.218000000     0.906000000
C    -0.449000000    -4.689000000     0.052000000
C    -1.753000000    -4.653000000     0.548000000
H    -1.908000000    -4.390000000     1.591000000
C    -0.294000000    -4.876000000    -1.327000000
H     0.698000000    -4.728000000    -1.746000000
O     0.771000000    -4.592000000     2.271000000
H     0.657000000    -3.126000000     0.893000000
C     3.561000000    -3.000000000     1.441000000
C     3.390000000    -3.553000000     2.867000000
H     4.275000000    -3.341000000     3.470000000
H     3.310000000    -4.642000000     2.856000000
C     2.137000000    -2.993000000     3.451000000
C     2.272000000    -1.801000000     4.226000000
H     3.294000000    -1.485000000     4.419000000
C     0.941000000    -3.531000000     3.109000000
C    -0.148000000    -2.821000000     3.534000000
H    -1.149000000    -3.211000000     3.367000000
C    -0.074000000    -1.636000000     4.260000000
O    -1.231000000    -1.045000000     4.692000000
C    -1.739000000     0.059000000     3.917000000
C    -3.223000000     0.056000000     3.623000000
C    -3.990000000    -1.069000000     3.843000000
H    -3.501000000    -1.882000000     4.374000000
C    -3.806000000     1.082000000     2.874000000
H    -3.219000000     1.981000000     2.707000000
O    -1.341000000     1.262000000     4.590000000
H    -1.224000000     0.052000000     2.945000000
C     1.115000000    -1.115000000     4.600000000
C     1.270000000     0.186000000     5.292000000
H     2.269000000     0.267000000     5.724000000
H     0.636000000     0.217000000     6.181000000
C     1.034000000     1.345000000     4.331000000
C    -0.183000000     1.929000000     4.141000000
C    -0.352000000     2.988000000     3.267000000
H    -1.326000000     3.309000000     2.909000000
C     0.852000000     3.625000000     2.759000000
O     0.634000000     4.581000000     1.732000000
C     0.866000000     4.213000000     0.334000000
H     0.727000000     3.123000000     0.289000000
C    -0.202000000     4.893000000    -0.542000000
C    -0.042000000     4.929000000    -1.928000000
H     0.937000000     4.611000000    -2.277000000
C    -1.403000000     5.262000000     0.081000000
H    -1.478000000     5.214000000     1.164000000
C    -2.517000000     5.600000000    -0.702000000
O    -3.779000000     5.928000000    -0.194000000
C    -2.302000000     5.660000000    -2.122000000
H    -3.131000000     6.079000000    -2.685000000
C    -1.121000000     5.347000000    -2.771000000
O    -1.001000000     5.469000000    -4.174000000
C     0.109000000     5.107000000    -4.856000000
C     0.180000000     3.778000000    -5.371000000
H    -0.606000000     3.047000000    -5.201000000
C     1.242000000     5.938000000    -4.913000000
H     1.201000000     6.891000000    -4.393000000
C     2.339000000     5.538000000    -5.704000000
H     3.230000000     6.153000000    -5.804000000
C     2.367000000     4.278000000    -6.258000000
H     3.223000000     4.017000000    -6.875000000
C     1.363000000     3.363000000    -6.072000000
O     1.446000000     2.104000000    -6.647000000
C     1.867000000     0.959000000    -6.014000000
C     1.469000000    -0.291000000    -6.529000000
H     1.007000000    -0.361000000    -7.511000000
C     1.779000000    -1.461000000    -5.785000000
O     1.495000000    -2.687000000    -6.389000000
C     1.189000000    -3.944000000    -5.840000000
C     0.235000000    -4.048000000    -4.859000000
H    -0.172000000    -3.123000000    -4.459000000
C     1.842000000    -5.029000000    -6.353000000
H     2.566000000    -4.850000000    -7.144000000
C     1.462000000    -6.348000000    -5.959000000
H     1.938000000    -7.254000000    -6.324000000
C     0.479000000    -6.479000000    -4.982000000
H     0.274000000    -7.494000000    -4.652000000
C    -0.152000000    -5.352000000    -4.390000000
O    -1.218000000    -5.474000000    -3.502000000
C    -1.352000000    -5.142000000    -2.182000000
C    -2.664000000    -5.291000000    -1.572000000
H    -3.534000000    -5.588000000    -2.153000000
C    -2.873000000    -4.976000000    -0.258000000
O    -4.171000000    -4.943000000     0.250000000
C    -4.518000000    -4.769000000     1.548000000
C    -4.987000000    -3.540000000     2.022000000
H    -5.174000000    -2.697000000     1.361000000
C    -4.390000000    -5.860000000     2.431000000
H    -4.128000000    -6.880000000     2.163000000
C    -4.848000000    -5.665000000     3.703000000
H    -4.796000000    -6.501000000     4.396000000
C    -5.411000000    -4.462000000     4.167000000
H    -5.943000000    -4.472000000     5.115000000
C    -5.544000000    -3.454000000     3.286000000
O    -6.008000000    -2.273000000     3.717000000
C    -5.309000000    -1.082000000     3.524000000
C    -5.912000000     0.094000000     3.030000000
H    -6.989000000     0.056000000     2.888000000
C    -5.156000000     1.142000000     2.641000000
O    -5.794000000     2.289000000     2.135000000
C    -5.203000000     3.571000000     2.123000000
C    -5.032000000     4.218000000     3.375000000
H    -5.422000000     3.706000000     4.251000000
C    -4.432000000     5.448000000     3.446000000
H    -4.387000000     5.956000000     4.406000000
C    -4.055000000     6.080000000     2.265000000
H    -3.773000000     7.130000000     2.233000000
C    -4.171000000     5.392000000     1.043000000
C    -4.706000000     4.161000000     0.971000000
H    -4.833000000     3.645000000     0.022000000
C    -2.219000000     0.338000000    -0.464000000
H    -3.172000000     0.852000000    -0.562000000
C    -1.317000000     0.805000000     0.491000000
H    -1.507000000     1.649000000     1.148000000
C    -0.111000000     0.167000000     0.546000000
H     0.749000000     0.487000000     1.160000000
C     0.164000000    -0.934000000    -0.310000000
H     1.147000000    -1.397000000    -0.342000000
C    -0.760000000    -1.437000000    -1.221000000
H    -0.414000000    -2.197000000    -1.917000000
C    -1.977000000    -0.720000000    -1.333000000
C    -2.933000000    -0.990000000    -2.447000000
O    -2.978000000    -2.056000000    -3.028000000
O    -3.670000000    -0.125000000    -2.821000000
O    -3.684000000     3.910000000    -6.083000000
H    -3.782000000     3.567000000    -5.194000000
H    -3.887000000     4.842000000    -6.004000000
O    -6.438000000    -0.230000000    -0.011000000
H    -6.594000000     0.216000000    -0.844000000
H    -6.613000000     0.436000000     0.653000000
O    -1.364000000    -0.269000000    -5.110000000
H    -1.907000000    -0.869000000    -4.600000000
H    -1.986000000     0.210000000    -5.659000000
O    -7.143000000    -5.095000000    -0.938000000
H    -6.350000000    -4.559000000    -0.976000000
H    -6.871000000    -5.891000000    -0.483000000
O    -7.413000000    -2.223000000    -6.635000000
H    -8.360000000    -2.322000000    -6.733000000
H    -7.289000000    -2.014000000    -5.709000000
O    -3.202000000     2.381000000    -3.671000000
H    -2.530000000     2.746000000    -3.096000000
H    -3.189000000     1.442000000    -3.489000000
O    -0.347000000     1.756000000    -2.722000000
H    -0.707000000     1.385000000    -3.527000000
H    -0.720000000     1.218000000    -2.023000000
O    -4.142000000    -0.972000000    -5.513000000
H    -3.751000000    -1.719000000    -5.967000000
H    -4.197000000    -1.249000000    -4.599000000
O    -3.284000000     1.389000000    -6.836000000
H    -3.473000000     2.313000000    -6.671000000
H    -3.882000000     0.915000000    -6.257000000
O    -6.004000000     3.847000000    -2.179000000
H    -5.517000000     3.105000000    -2.537000000
H    -6.344000000     4.304000000    -2.949000000
O    -3.561000000    -4.324000000    -4.544000000
H    -2.968000000    -5.015000000    -4.247000000
H    -3.265000000    -3.540000000    -4.081000000
O    -6.080000000    -0.291000000    -7.821000000
H    -5.792000000    -0.278000000    -6.908000000
H    -6.676000000    -1.038000000    -7.874000000
O    -5.903000000    -2.572000000    -1.487000000
H    -5.879000000    -1.777000000    -0.955000000
H    -5.050000000    -2.595000000    -1.921000000
O    -6.203000000     0.528000000    -2.885000000
H    -5.307000000     0.261000000    -2.679000000
H    -6.148000000     0.883000000    -3.772000000
O    -6.487000000     2.121000000    -5.096000000
H    -7.021000000     1.861000000    -5.847000000
H    -6.391000000     3.069000000    -5.188000000
O    -6.094000000    -5.469000000    -4.416000000
H    -6.465000000    -5.128000000    -3.602000000
H    -5.172000000    -5.214000000    -4.384000000
O    -3.061000000    -3.040000000    -6.712000000
H    -3.441000000    -3.434000000    -5.927000000
H    -2.723000000    -3.783000000    -7.213000000
O    -7.704000000    -1.950000000    -3.910000000
H    -6.969000000    -2.032000000    -3.302000000
H    -8.405000000    -1.559000000    -3.388000000
O    -9.101000000    -1.483000000    -1.436000000
H    -9.751000000    -1.467000000    -0.734000000
H    -8.367000000    -1.979000000    -1.073000000
