215
-1433.49485
C     1.834000000    -0.875000000    -4.515000000
H     1.723000000    -1.848000000    -4.041000000
C     2.368000000     0.263000000    -3.961000000
C     2.258000000     1.531000000    -4.654000000
H     2.543000000     2.469000000    -4.185000000
C     3.136000000     0.126000000    -2.607000000
O     3.789000000    -1.278000000    -2.621000000
H     2.448000000     0.135000000    -1.749000000
O     4.102000000     1.117000000    -2.490000000
C     4.165000000     1.751000000    -1.302000000
C     3.543000000     2.959000000    -1.134000000
H     3.013000000     3.443000000    -1.950000000
C     3.277000000     3.491000000     0.104000000
O     2.331000000     4.479000000     0.220000000
C     3.815000000     2.923000000     1.234000000
C     3.547000000     3.400000000     2.618000000
H     4.344000000     3.288000000     3.356000000
C     2.306000000     2.615000000     3.126000000
C     2.444000000     1.516000000     3.911000000
H     3.465000000     1.201000000     4.113000000
H     3.348000000     4.473000000     2.564000000
C     4.589000000     1.774000000     1.110000000
H     4.936000000     1.187000000     1.956000000
C     4.697000000     1.160000000    -0.162000000
C     5.406000000    -0.243000000    -0.212000000
H     6.087000000    -0.295000000     0.640000000
H     6.043000000    -0.125000000    -1.090000000
C     4.544000000    -1.516000000    -0.304000000
C     4.481000000    -2.281000000     0.846000000
H     4.968000000    -2.019000000     1.781000000
C     3.823000000    -1.991000000    -1.489000000
C     3.078000000    -3.126000000    -1.468000000
H     2.479000000    -3.276000000    -2.363000000
C     2.927000000    -3.784000000    -0.296000000
O     1.958000000    -4.763000000    -0.125000000
C     0.650000000    -4.512000000     0.489000000
C    -0.458000000    -5.044000000    -0.302000000
C    -1.667000000    -5.305000000     0.341000000
H    -1.767000000    -5.005000000     1.381000000
C    -0.473000000    -4.962000000    -1.712000000
H     0.470000000    -4.786000000    -2.223000000
O     0.610000000    -4.975000000     1.869000000
H     0.429000000    -3.435000000     0.495000000
C     3.603000000    -3.426000000     0.882000000
C     3.295000000    -4.075000000     2.220000000
H     4.035000000    -3.974000000     3.016000000
H     3.179000000    -5.159000000     2.165000000
C     2.105000000    -3.413000000     2.909000000
C     2.289000000    -2.265000000     3.700000000
H     3.303000000    -1.904000000     3.852000000
C     0.800000000    -3.911000000     2.767000000
C    -0.287000000    -3.255000000     3.455000000
H    -1.321000000    -3.583000000     3.395000000
C    -0.078000000    -2.129000000     4.261000000
O    -1.214000000    -1.489000000     4.752000000
C    -1.495000000    -0.201000000     4.115000000
C    -2.962000000    -0.032000000     3.708000000
C    -3.617000000    -1.032000000     3.021000000
H    -3.080000000    -1.899000000     2.647000000
C    -3.631000000     1.203000000     3.919000000
H    -3.111000000     2.067000000     4.326000000
O    -1.010000000     0.880000000     4.846000000
H    -0.928000000    -0.066000000     3.182000000
C     1.218000000    -1.640000000     4.341000000
C     1.501000000    -0.413000000     5.207000000
H     2.562000000    -0.504000000     5.446000000
H     0.928000000    -0.390000000     6.136000000
C     1.348000000     0.839000000     4.408000000
C     0.118000000     1.410000000     4.264000000
C    -0.102000000     2.485000000     3.424000000
H    -1.104000000     2.900000000     3.491000000
C     1.022000000     3.081000000     2.808000000
O     0.853000000     4.067000000     1.903000000
C     0.994000000     3.928000000     0.512000000
H     0.873000000     2.853000000     0.309000000
C    -0.123000000     4.642000000    -0.228000000
C    -0.064000000     4.878000000    -1.638000000
H     0.788000000     4.714000000    -2.292000000
C    -1.421000000     4.757000000     0.363000000
H    -1.536000000     4.390000000     1.380000000
C    -2.523000000     5.323000000    -0.335000000
O    -3.754000000     5.368000000     0.262000000
C    -2.342000000     5.571000000    -1.712000000
H    -3.176000000     6.089000000    -2.178000000
C    -1.148000000     5.298000000    -2.346000000
O    -0.994000000     5.774000000    -3.694000000
C     0.036000000     5.563000000    -4.439000000
C     0.230000000     4.362000000    -5.067000000
H    -0.399000000     3.493000000    -4.891000000
C     0.943000000     6.594000000    -4.507000000
H     0.810000000     7.471000000    -3.879000000
C     2.131000000     6.436000000    -5.292000000
H     2.950000000     7.137000000    -5.429000000
C     2.363000000     5.206000000    -5.932000000
H     3.214000000     5.019000000    -6.582000000
C     1.356000000     4.210000000    -5.874000000
O     1.595000000     3.000000000    -6.569000000
C     1.667000000     1.720000000    -5.884000000
C     1.058000000     0.605000000    -6.362000000
H     0.513000000     0.747000000    -7.292000000
C     1.092000000    -0.609000000    -5.704000000
O     0.382000000    -1.626000000    -6.292000000
C     0.305000000    -2.981000000    -5.912000000
C    -0.557000000    -3.489000000    -4.900000000
H    -1.129000000    -2.754000000    -4.339000000
C     1.150000000    -3.847000000    -6.668000000
H     1.877000000    -3.532000000    -7.412000000
C     0.991000000    -5.247000000    -6.451000000
H     1.507000000    -5.896000000    -7.154000000
C     0.069000000    -5.747000000    -5.553000000
H    -0.026000000    -6.818000000    -5.390000000
C    -0.554000000    -4.875000000    -4.656000000
O    -1.478000000    -5.365000000    -3.792000000
C    -1.617000000    -5.264000000    -2.453000000
C    -2.791000000    -5.727000000    -1.789000000
H    -3.651000000    -5.975000000    -2.406000000
C    -2.830000000    -5.646000000    -0.400000000
O    -3.995000000    -5.954000000     0.213000000
C    -4.393000000    -5.369000000     1.353000000
C    -4.837000000    -4.063000000     1.314000000
H    -4.813000000    -3.405000000     0.449000000
C    -4.274000000    -6.059000000     2.599000000
H    -3.795000000    -7.025000000     2.737000000
C    -4.729000000    -5.338000000     3.748000000
H    -4.854000000    -5.871000000     4.687000000
C    -5.221000000    -4.043000000     3.660000000
H    -5.704000000    -3.644000000     4.547000000
C    -5.210000000    -3.385000000     2.472000000
O    -5.710000000    -2.082000000     2.354000000
C    -4.977000000    -1.006000000     2.865000000
C    -5.680000000     0.144000000     3.220000000
H    -6.749000000     0.202000000     3.028000000
C    -4.988000000     1.329000000     3.486000000
O    -5.720000000     2.509000000     3.595000000
C    -5.001000000     3.669000000     3.246000000
C    -4.506000000     4.491000000     4.235000000
H    -4.772000000     4.261000000     5.263000000
C    -3.557000000     5.509000000     3.912000000
H    -3.081000000     6.131000000     4.666000000
C    -3.384000000     5.895000000     2.566000000
H    -2.807000000     6.781000000     2.312000000
C    -4.003000000     5.116000000     1.605000000
C    -4.741000000     3.996000000     1.927000000
H    -5.123000000     3.447000000     1.070000000
C    -2.845000000     0.723000000     0.237000000
H    -3.595000000     1.433000000     0.575000000
C    -1.512000000     0.926000000     0.640000000
H    -1.211000000     1.830000000     1.164000000
C    -0.541000000     0.040000000     0.199000000
H     0.515000000     0.257000000     0.436000000
C    -0.844000000    -1.048000000    -0.660000000
H    -0.010000000    -1.675000000    -0.966000000
C    -2.157000000    -1.227000000    -1.097000000
H    -2.437000000    -2.060000000    -1.736000000
C    -3.147000000    -0.385000000    -0.510000000
C    -4.592000000    -0.610000000    -0.877000000
O    -4.945000000    -1.366000000    -1.789000000
O    -5.433000000     0.094000000    -0.287000000
O    -6.865000000     0.620000000    -6.304000000
H    -6.021000000     0.248000000    -6.047000000
H    -6.641000000     1.428000000    -6.765000000
O    -7.148000000     1.983000000     0.528000000
H    -7.488000000     1.563000000    -0.263000000
H    -6.399000000     1.445000000     0.782000000
O    -2.708000000    -1.153000000    -5.546000000
H    -3.643000000    -1.211000000    -5.350000000
H    -2.514000000    -1.957000000    -6.028000000
O    -2.549000000     1.474000000    -4.935000000
H    -1.994000000     1.303000000    -4.174000000
H    -2.575000000     0.639000000    -5.404000000
O    -8.543000000     1.715000000    -4.207000000
H    -7.936000000     1.811000000    -3.473000000
H    -8.057000000     1.206000000    -4.855000000
O    -1.322000000     1.721000000    -2.420000000
H    -1.160000000     1.040000000    -1.767000000
H    -1.779000000     2.411000000    -1.939000000
O    -5.144000000    -0.709000000    -4.356000000
H    -4.797000000     0.134000000    -4.066000000
H    -5.231000000    -1.221000000    -3.552000000
O    -4.235000000     2.668000000    -2.863000000
H    -3.695000000     2.351000000    -3.587000000
H    -4.756000000     3.375000000    -3.244000000
O    -5.247000000    -3.543000000    -3.163000000
H    -5.125000000    -2.728000000    -2.676000000
H    -6.091000000    -3.436000000    -3.601000000
O    -7.537000000    -1.353000000     0.012000000
H    -6.727000000    -0.844000000     0.012000000
H    -7.386000000    -2.043000000    -0.635000000
O    -8.254000000    -4.466000000     1.530000000
H    -7.883000000    -3.584000000     1.525000000
H    -7.589000000    -5.002000000     1.963000000
O    -6.737000000     1.454000000    -2.235000000
H    -6.394000000     0.604000000    -1.960000000
H    -5.962000000     2.008000000    -2.325000000
O    -7.942000000     3.831000000     2.367000000
H    -7.602000000     3.420000000     1.572000000
H    -7.719000000     3.219000000     3.067000000
O    -4.566000000     2.428000000    -6.494000000
H    -4.682000000     3.365000000    -6.335000000
H    -3.833000000     2.179000000    -5.932000000
O    -7.513000000    -5.447000000    -3.276000000
H    -8.167000000    -5.112000000    -2.663000000
H    -6.703000000    -5.485000000    -2.767000000
O    -3.922000000    -3.493000000    -6.008000000
H    -4.392000000    -3.875000000    -5.267000000
H    -3.618000000    -4.247000000    -6.513000000
O    -7.614000000    -2.805000000    -4.459000000
H    -7.591000000    -1.871000000    -4.252000000
H    -8.461000000    -3.103000000    -4.126000000
O    -8.785000000    -1.677000000     2.584000000
H    -9.686000000    -1.354000000     2.550000000
H    -8.419000000    -1.455000000     1.728000000
O    -9.536000000     0.373000000    -1.778000000
H    -9.975000000    -0.363000000    -1.350000000
H    -8.623000000     0.096000000    -1.852000000
