215
-1449.72111
C     2.275000000    -0.879000000    -4.977000000
H     2.711000000    -1.812000000    -4.628000000
C     2.503000000     0.227000000    -4.099000000
C     1.887000000     1.523000000    -4.482000000
H     2.098000000     2.406000000    -3.885000000
C     3.314000000     0.100000000    -2.865000000
O     4.042000000    -1.140000000    -2.844000000
H     2.608000000    -0.019000000    -2.030000000
O     4.131000000     1.257000000    -2.543000000
C     4.135000000     1.725000000    -1.225000000
C     3.410000000     2.849000000    -0.880000000
H     2.976000000     3.283000000    -1.777000000
C     3.268000000     3.345000000     0.415000000
O     2.379000000     4.437000000     0.522000000
C     3.918000000     2.661000000     1.424000000
C     3.687000000     3.175000000     2.828000000
H     4.505000000     2.899000000     3.497000000
C     2.371000000     2.649000000     3.392000000
C     2.440000000     1.490000000     4.210000000
H     3.392000000     1.054000000     4.500000000
H     3.660000000     4.262000000     2.734000000
C     4.630000000     1.492000000     1.111000000
H     4.999000000     0.859000000     1.913000000
C     4.820000000     1.073000000    -0.210000000
C     5.562000000    -0.256000000    -0.452000000
H     6.247000000    -0.461000000     0.373000000
H     6.253000000    -0.114000000    -1.285000000
C     4.677000000    -1.499000000    -0.502000000
C     4.380000000    -2.170000000     0.672000000
H     4.890000000    -1.770000000     1.544000000
C     4.042000000    -1.910000000    -1.675000000
C     3.070000000    -2.924000000    -1.637000000
H     2.607000000    -3.247000000    -2.567000000
C     2.814000000    -3.652000000    -0.503000000
O     1.808000000    -4.564000000    -0.542000000
C     0.609000000    -4.154000000     0.061000000
C    -0.581000000    -4.617000000    -0.744000000
C    -1.801000000    -4.969000000    -0.109000000
H    -1.859000000    -4.996000000     0.977000000
C    -0.545000000    -4.534000000    -2.106000000
H     0.345000000    -4.266000000    -2.670000000
O     0.497000000    -4.603000000     1.481000000
H     0.536000000    -3.058000000     0.007000000
C     3.436000000    -3.191000000     0.660000000
C     3.200000000    -3.716000000     2.050000000
H     4.009000000    -3.564000000     2.767000000
H     2.950000000    -4.779000000     2.053000000
C     1.975000000    -3.157000000     2.687000000
C     2.143000000    -2.113000000     3.593000000
H     3.090000000    -1.579000000     3.564000000
C     0.717000000    -3.672000000     2.428000000
C    -0.306000000    -3.137000000     3.137000000
H    -1.280000000    -3.549000000     2.886000000
C    -0.169000000    -2.084000000     4.077000000
O    -1.279000000    -1.502000000     4.507000000
C    -1.661000000    -0.286000000     3.899000000
C    -3.151000000    -0.207000000     3.516000000
C    -3.825000000    -1.362000000     3.128000000
H    -3.233000000    -2.260000000     3.280000000
C    -3.752000000     1.044000000     3.401000000
H    -3.137000000     1.932000000     3.526000000
O    -1.165000000     0.852000000     4.752000000
H    -1.170000000    -0.229000000     2.916000000
C     1.136000000    -1.596000000     4.355000000
C     1.320000000    -0.447000000     5.358000000
H     2.253000000    -0.591000000     5.907000000
H     0.537000000    -0.498000000     6.117000000
C     1.248000000     0.876000000     4.648000000
C     0.041000000     1.514000000     4.467000000
C    -0.049000000     2.707000000     3.724000000
H    -0.997000000     3.233000000     3.650000000
C     1.100000000     3.246000000     3.236000000
O     1.014000000     4.418000000     2.432000000
C     1.006000000     4.169000000     0.977000000
H     0.727000000     3.110000000     0.868000000
C    -0.034000000     4.988000000     0.337000000
C     0.124000000     5.255000000    -1.035000000
H     1.071000000     5.083000000    -1.539000000
C    -1.240000000     5.275000000     0.980000000
H    -1.452000000     5.126000000     2.035000000
C    -2.255000000     5.886000000     0.290000000
O    -3.513000000     6.083000000     0.874000000
C    -2.035000000     6.199000000    -1.054000000
H    -2.865000000     6.724000000    -1.520000000
C    -0.896000000     5.880000000    -1.748000000
O    -0.871000000     6.215000000    -3.074000000
C     0.163000000     5.684000000    -3.859000000
C    -0.178000000     4.610000000    -4.673000000
H    -1.138000000     4.108000000    -4.583000000
C     1.462000000     6.258000000    -3.883000000
H     1.624000000     7.051000000    -3.158000000
C     2.453000000     5.709000000    -4.739000000
H     3.441000000     6.159000000    -4.693000000
C     2.119000000     4.541000000    -5.452000000
H     2.940000000     4.009000000    -5.926000000
C     0.848000000     3.982000000    -5.488000000
O     0.523000000     2.766000000    -6.041000000
C     1.137000000     1.561000000    -5.674000000
C     0.885000000     0.443000000    -6.421000000
H     0.201000000     0.538000000    -7.261000000
C     1.449000000    -0.788000000    -6.089000000
O     1.301000000    -1.900000000    -6.909000000
C     0.893000000    -3.139000000    -6.379000000
C    -0.102000000    -3.342000000    -5.383000000
H    -0.671000000    -2.546000000    -4.908000000
C     1.514000000    -4.220000000    -7.010000000
H     2.262000000    -3.916000000    -7.738000000
C     1.275000000    -5.541000000    -6.652000000
H     1.819000000    -6.332000000    -7.163000000
C     0.362000000    -5.704000000    -5.563000000
H     0.295000000    -6.741000000    -5.243000000
C    -0.434000000    -4.654000000    -5.018000000
O    -1.564000000    -4.945000000    -4.250000000
C    -1.624000000    -4.964000000    -2.881000000
C    -2.851000000    -5.368000000    -2.268000000
H    -3.680000000    -5.849000000    -2.781000000
C    -2.908000000    -5.304000000    -0.877000000
O    -3.997000000    -5.842000000    -0.176000000
C    -4.368000000    -5.441000000     1.034000000
C    -4.861000000    -4.194000000     1.258000000
H    -4.960000000    -3.451000000     0.470000000
C    -4.334000000    -6.386000000     2.076000000
H    -4.028000000    -7.408000000     1.870000000
C    -4.721000000    -6.022000000     3.327000000
H    -4.672000000    -6.690000000     4.184000000
C    -5.236000000    -4.698000000     3.553000000
H    -5.717000000    -4.439000000     4.493000000
C    -5.253000000    -3.735000000     2.501000000
O    -5.885000000    -2.481000000     2.631000000
C    -5.186000000    -1.285000000     2.818000000
C    -5.813000000    -0.010000000     2.732000000
H    -6.862000000    -0.017000000     2.447000000
C    -5.111000000     1.139000000     3.096000000
O    -5.723000000     2.375000000     2.976000000
C    -5.099000000     3.585000000     3.092000000
C    -4.943000000     4.209000000     4.332000000
H    -5.384000000     3.733000000     5.204000000
C    -4.121000000     5.344000000     4.423000000
H    -4.038000000     5.674000000     5.455000000
C    -3.668000000     6.021000000     3.293000000
H    -3.132000000     6.965000000     3.343000000
C    -3.916000000     5.477000000     2.035000000
C    -4.624000000     4.199000000     1.973000000
H    -4.695000000     3.693000000     1.014000000
C    -2.916000000     0.199000000     0.249000000
H    -3.580000000     0.600000000     1.010000000
C    -1.559000000     0.629000000     0.322000000
H    -1.206000000     1.409000000     0.992000000
C    -0.683000000     0.306000000    -0.696000000
H     0.264000000     0.881000000    -0.730000000
C    -1.036000000    -0.659000000    -1.627000000
H    -0.251000000    -0.899000000    -2.339000000
C    -2.320000000    -1.237000000    -1.539000000
H    -2.564000000    -2.061000000    -2.205000000
C    -3.329000000    -0.707000000    -0.770000000
C    -4.690000000    -1.220000000    -0.904000000
O    -4.914000000    -1.996000000    -1.805000000
O    -5.581000000    -0.600000000    -0.410000000
O    -5.666000000    -1.193000000    -6.066000000
H    -5.710000000    -0.720000000    -5.234000000
H    -4.791000000    -1.580000000    -6.076000000
O    -5.742000000     2.042000000    -0.713000000
H    -5.458000000     1.169000000    -0.440000000
H    -5.558000000     2.071000000    -1.652000000
O    -2.852000000    -1.406000000    -6.467000000
H    -3.015000000    -1.798000000    -5.609000000
H    -2.334000000    -2.062000000    -6.934000000
O   -10.056000000     1.832000000    -1.463000000
H    -9.181000000     2.202000000    -1.350000000
H   -10.429000000     1.825000000    -0.582000000
O    -7.223000000    -3.081000000    -4.917000000
H    -6.809000000    -2.449000000    -5.505000000
H    -8.161000000    -2.971000000    -5.069000000
O    -3.020000000     1.689000000    -4.358000000
H    -2.547000000     1.997000000    -3.584000000
H    -2.949000000     0.736000000    -4.319000000
O    -5.360000000     3.006000000    -4.433000000
H    -4.931000000     3.722000000    -4.902000000
H    -4.654000000     2.392000000    -4.234000000
O    -2.257000000     2.704000000    -1.954000000
H    -2.255000000     2.214000000    -1.132000000
H    -2.662000000     3.542000000    -1.732000000
O    -7.893000000    -2.060000000     4.582000000
H    -7.332000000    -1.954000000     3.814000000
H    -7.300000000    -1.966000000     5.327000000
O    -3.887000000    -2.618000000    -4.213000000
H    -4.281000000    -2.162000000    -3.469000000
H    -4.361000000    -3.448000000    -4.263000000
O    -4.382000000     4.525000000    -1.563000000
H    -5.125000000     3.957000000    -1.357000000
H    -4.576000000     4.865000000    -2.436000000
O    -6.883000000    -3.930000000    -2.317000000
H    -6.188000000    -3.287000000    -2.172000000
H    -7.227000000    -3.720000000    -3.185000000
O    -7.866000000    -1.887000000     0.304000000
H    -7.133000000    -1.323000000     0.059000000
H    -7.555000000    -2.775000000     0.125000000
O    -8.473000000    -4.878000000     1.930000000
H    -8.527000000    -4.047000000     2.402000000
H    -8.511000000    -5.545000000     2.615000000
O   -10.684000000    -2.283000000     0.193000000
H   -11.104000000    -1.608000000     0.728000000
H    -9.746000000    -2.138000000     0.318000000
O    -5.936000000     0.150000000    -3.315000000
H    -5.850000000    -0.373000000    -2.518000000
H    -6.880000000     0.237000000    -3.445000000
O    -7.973000000     2.749000000     0.507000000
H    -7.245000000     2.384000000     0.003000000
H    -8.359000000     1.994000000     0.951000000
O    -4.772000000    -5.417000000    -5.285000000
H    -4.864000000    -6.326000000    -5.570000000
H    -5.664000000    -5.142000000    -5.071000000
O    -8.996000000     0.442000000     1.327000000
H    -9.874000000     0.190000000     1.615000000
H    -8.593000000    -0.378000000     1.043000000
