215
-1442.60591
C    -3.231000000     1.956000000    -3.000000000
H    -3.356000000     0.877000000    -2.956000000
C    -2.091000000     2.548000000    -3.480000000
C    -1.975000000     3.884000000    -3.530000000
H    -1.031000000     4.351000000    -3.797000000
C    -0.955000000     1.643000000    -3.941000000
O    -1.448000000     0.482000000    -4.649000000
H    -0.513000000     1.322000000    -2.987000000
O     0.075000000     2.256000000    -4.677000000
C     1.337000000     2.044000000    -4.211000000
C     1.856000000     2.875000000    -3.241000000
H     1.333000000     3.781000000    -2.945000000
C     3.046000000     2.489000000    -2.600000000
O     3.499000000     3.189000000    -1.509000000
C     3.731000000     1.242000000    -2.945000000
C     4.961000000     0.727000000    -2.240000000
H     5.477000000     0.053000000    -2.927000000
C     4.820000000    -0.002000000    -0.925000000
C     4.643000000    -1.404000000    -0.924000000
H     4.879000000    -1.914000000    -1.855000000
H     5.659000000     1.538000000    -2.022000000
C     3.155000000     0.471000000    -3.979000000
H     3.575000000    -0.494000000    -4.253000000
C     1.977000000     0.856000000    -4.565000000
C     1.254000000    -0.090000000    -5.425000000
H     1.906000000    -0.714000000    -6.040000000
H     0.691000000     0.400000000    -6.222000000
C     0.365000000    -1.107000000    -4.648000000
C     0.864000000    -2.379000000    -4.206000000
H     1.892000000    -2.602000000    -4.480000000
C    -0.997000000    -0.810000000    -4.334000000
C    -1.890000000    -1.730000000    -3.788000000
H    -2.857000000    -1.419000000    -3.402000000
C    -1.387000000    -2.930000000    -3.309000000
O    -2.242000000    -3.697000000    -2.573000000
C    -1.988000000    -3.544000000    -1.137000000
C    -3.271000000    -3.417000000    -0.374000000
C    -3.132000000    -3.572000000     1.008000000
H    -2.154000000    -3.807000000     1.420000000
C    -4.391000000    -2.892000000    -0.961000000
H    -4.485000000    -2.693000000    -2.025000000
O    -1.305000000    -4.737000000    -0.808000000
H    -1.305000000    -2.721000000    -0.879000000
C    -0.020000000    -3.280000000    -3.570000000
C     0.487000000    -4.642000000    -3.168000000
H     1.262000000    -5.000000000    -3.849000000
H    -0.369000000    -5.320000000    -3.185000000
C     1.040000000    -4.534000000    -1.778000000
C     2.374000000    -4.180000000    -1.511000000
H     3.028000000    -3.994000000    -2.358000000
C     0.107000000    -4.553000000    -0.721000000
C     0.576000000    -4.391000000     0.589000000
H    -0.114000000    -4.557000000     1.412000000
C     1.882000000    -4.122000000     0.866000000
O     2.183000000    -3.870000000     2.180000000
C     2.330000000    -2.445000000     2.518000000
C     1.697000000    -2.116000000     3.836000000
C     0.826000000    -2.994000000     4.447000000
H     0.629000000    -3.985000000     4.046000000
C     1.838000000    -0.795000000     4.333000000
H     2.585000000    -0.119000000     3.925000000
O     3.650000000    -1.969000000     2.506000000
H     1.771000000    -1.851000000     1.780000000
C     2.814000000    -3.978000000    -0.159000000
C     4.223000000    -3.609000000     0.185000000
H     4.759000000    -4.092000000    -0.635000000
H     4.462000000    -4.092000000     1.135000000
C     4.340000000    -2.095000000     0.213000000
C     4.101000000    -1.324000000     1.382000000
C     4.361000000    -0.027000000     1.417000000
H     4.081000000     0.583000000     2.272000000
C     4.715000000     0.687000000     0.261000000
O     4.536000000     2.045000000     0.291000000
C     3.354000000     2.630000000    -0.220000000
H     2.612000000     1.833000000    -0.377000000
C     2.720000000     3.569000000     0.728000000
C     1.702000000     4.389000000     0.312000000
H     1.188000000     4.258000000    -0.637000000
C     3.247000000     3.817000000     1.997000000
H     4.018000000     3.180000000     2.424000000
C     2.747000000     4.725000000     2.919000000
O     3.203000000     4.827000000     4.207000000
C     1.596000000     5.410000000     2.522000000
H     1.148000000     6.098000000     3.234000000
C     1.073000000     5.278000000     1.203000000
O     0.008000000     6.076000000     0.892000000
C    -0.299000000     6.536000000    -0.323000000
C    -1.536000000     6.143000000    -0.829000000
H    -2.206000000     5.536000000    -0.225000000
C     0.549000000     7.278000000    -0.984000000
H     1.532000000     7.546000000    -0.606000000
C     0.245000000     7.720000000    -2.248000000
H     1.026000000     8.129000000    -2.883000000
C    -0.971000000     7.376000000    -2.866000000
H    -1.231000000     7.640000000    -3.888000000
C    -1.819000000     6.579000000    -2.142000000
O    -2.917000000     6.046000000    -2.773000000
C    -2.966000000     4.707000000    -2.935000000
C    -4.124000000     4.087000000    -2.460000000
H    -4.833000000     4.684000000    -1.893000000
C    -4.277000000     2.709000000    -2.543000000
O    -5.420000000     2.188000000    -2.022000000
C    -6.032000000     1.018000000    -2.274000000
C    -5.889000000    -0.061000000    -1.416000000
H    -5.184000000    -0.014000000    -0.590000000
C    -6.966000000     0.909000000    -3.307000000
H    -7.167000000     1.776000000    -3.931000000
C    -7.683000000    -0.257000000    -3.497000000
H    -8.325000000    -0.325000000    -4.372000000
C    -7.544000000    -1.278000000    -2.622000000
H    -8.079000000    -2.219000000    -2.717000000
C    -6.622000000    -1.205000000    -1.556000000
O    -6.631000000    -2.217000000    -0.631000000
C    -5.487000000    -2.692000000    -0.125000000
C    -5.472000000    -3.009000000     1.234000000
H    -6.393000000    -2.921000000     1.804000000
C    -4.253000000    -3.433000000     1.791000000
O    -4.210000000    -3.729000000     3.195000000
C    -3.308000000    -4.429000000     3.910000000
C    -2.597000000    -3.754000000     4.858000000
H    -2.681000000    -2.683000000     5.020000000
C    -3.024000000    -5.742000000     3.613000000
H    -3.622000000    -6.241000000     2.855000000
C    -1.918000000    -6.399000000     4.214000000
H    -1.639000000    -7.372000000     3.818000000
C    -1.093000000    -5.730000000     5.053000000
H    -0.198000000    -6.031000000     5.591000000
C    -1.468000000    -4.428000000     5.379000000
O    -0.673000000    -3.622000000     6.128000000
C     0.156000000    -2.648000000     5.564000000
C     0.285000000    -1.427000000     6.116000000
H    -0.266000000    -1.131000000     7.005000000
C     1.157000000    -0.522000000     5.510000000
O     1.299000000     0.772000000     6.090000000
C     2.374000000     1.645000000     5.916000000
C     3.592000000     1.332000000     6.509000000
H     3.755000000     0.515000000     7.207000000
C     4.696000000     2.173000000     6.353000000
H     5.606000000     2.117000000     6.944000000
C     4.572000000     3.272000000     5.517000000
H     5.456000000     3.895000000     5.407000000
C     3.352000000     3.590000000     4.882000000
C     2.255000000     2.801000000     5.074000000
H     1.335000000     3.089000000     4.573000000
C    -1.833000000    -0.353000000     2.478000000
H    -1.869000000    -0.669000000     3.518000000
C    -0.812000000    -0.943000000     1.690000000
H    -0.272000000    -1.795000000     2.096000000
C    -0.662000000    -0.585000000     0.380000000
H     0.055000000    -0.995000000    -0.293000000
C    -1.488000000     0.387000000    -0.152000000
H    -1.384000000     0.646000000    -1.202000000
C    -2.522000000     0.964000000     0.611000000
H    -3.233000000     1.667000000     0.183000000
C    -2.693000000     0.631000000     1.970000000
C    -3.827000000     1.079000000     2.777000000
O    -4.698000000     1.740000000     2.231000000
O    -3.940000000     0.830000000     3.928000000
O    -5.297000000    -2.017000000     4.849000000
H    -5.086000000    -2.417000000     4.005000000
H    -5.912000000    -1.316000000     4.635000000
O    -9.643000000     0.714000000     0.083000000
H    -8.763000000     0.996000000     0.331000000
H    -9.651000000    -0.227000000     0.256000000
O    -3.687000000    -0.392000000     6.739000000
H    -4.064000000    -1.040000000     6.145000000
H    -3.643000000     0.411000000     6.220000000
O    -2.425000000     5.922000000     2.814000000
H    -2.212000000     6.567000000     2.140000000
H    -2.227000000     6.364000000     3.640000000
O    -9.284000000     0.455000000     5.334000000
H    -8.481000000     0.521000000     4.817000000
H    -8.982000000     0.293000000     6.227000000
O    -1.887000000     2.291000000     8.265000000
H    -2.023000000     1.387000000     8.550000000
H    -2.164000000     2.298000000     7.349000000
O    -6.773000000     0.196000000     3.883000000
H    -5.836000000     0.327000000     4.033000000
H    -7.007000000     0.860000000     3.235000000
O    -9.140000000    -1.425000000     2.672000000
H    -9.882000000    -0.885000000     2.399000000
H    -8.584000000    -0.830000000     3.175000000
O    -3.979000000     4.252000000     1.219000000
H    -3.490000000     4.770000000     1.858000000
H    -4.029000000     3.378000000     1.606000000
O    -6.993000000     1.636000000     1.268000000
H    -6.090000000     1.692000000     1.580000000
H    -7.057000000     2.316000000     0.597000000
O    -5.984000000     0.928000000     7.891000000
H    -5.159000000     0.859000000     7.410000000
H    -6.314000000     1.800000000     7.677000000
O    -2.398000000    -0.298000000     9.009000000
H    -2.734000000    -0.463000000     8.128000000
H    -2.433000000    -1.151000000     9.442000000
O    -1.222000000     3.685000000     4.142000000
H    -1.313000000     4.058000000     3.264000000
H    -0.694000000     4.325000000     4.620000000
O    -7.591000000     4.688000000     3.041000000
H    -8.439000000     4.244000000     3.028000000
H    -7.008000000     4.078000000     3.495000000
O    -6.802000000     4.622000000     0.491000000
H    -5.859000000     4.783000000     0.523000000
H    -7.107000000     4.812000000     1.378000000
O    -2.779000000     2.181000000     5.680000000
H    -3.294000000     1.745000000     5.002000000
H    -2.241000000     2.813000000     5.203000000
O    -4.860000000     5.695000000     5.734000000
H    -4.880000000     6.345000000     5.032000000
H    -5.746000000     5.704000000     6.095000000
O    -7.116000000     3.255000000     6.953000000
H    -7.075000000     3.443000000     6.015000000
H    -7.861000000     3.768000000     7.268000000
O    -5.848000000     3.131000000     4.457000000
H    -5.337000000     2.506000000     3.943000000
H    -5.200000000     3.582000000     4.998000000
