215
-1462.11718
C     0.849000000    -1.101000000    -4.026000000
H     0.607000000    -1.910000000    -3.341000000
C     2.051000000    -0.358000000    -3.970000000
C     2.319000000     0.638000000    -4.840000000
H     3.300000000     1.102000000    -4.785000000
C     2.990000000    -0.740000000    -2.840000000
O     3.307000000    -2.166000000    -2.803000000
H     2.420000000    -0.444000000    -1.947000000
O     4.266000000    -0.003000000    -2.874000000
C     4.542000000     0.641000000    -1.678000000
C     3.981000000     1.897000000    -1.644000000
H     3.714000000     2.381000000    -2.579000000
C     3.866000000     2.486000000    -0.428000000
O     3.083000000     3.623000000    -0.290000000
C     4.432000000     1.982000000     0.738000000
C     4.329000000     2.767000000     2.044000000
H     5.196000000     2.563000000     2.676000000
C     3.130000000     2.388000000     2.821000000
C     3.079000000     1.343000000     3.752000000
H     3.989000000     0.785000000     3.959000000
H     4.362000000     3.837000000     1.829000000
C     5.017000000     0.744000000     0.672000000
H     5.331000000     0.304000000     1.616000000
C     5.071000000     0.045000000    -0.569000000
C     5.484000000    -1.378000000    -0.670000000
H     6.341000000    -1.365000000     0.007000000
H     5.999000000    -1.462000000    -1.629000000
C     4.343000000    -2.356000000    -0.488000000
C     4.159000000    -2.953000000     0.781000000
H     4.810000000    -2.697000000     1.613000000
C     3.438000000    -2.736000000    -1.516000000
C     2.349000000    -3.568000000    -1.239000000
H     1.580000000    -3.788000000    -1.975000000
C     2.202000000    -4.119000000    -0.038000000
O     1.033000000    -4.885000000     0.192000000
C    -0.071000000    -4.250000000     0.843000000
C    -1.384000000    -4.719000000     0.157000000
C    -2.608000000    -4.666000000     0.808000000
H    -2.601000000    -4.497000000     1.882000000
C    -1.402000000    -5.144000000    -1.153000000
H    -0.518000000    -5.019000000    -1.774000000
O    -0.055000000    -4.635000000     2.189000000
H    -0.118000000    -3.153000000     0.787000000
C     3.086000000    -3.860000000     1.021000000
C     2.890000000    -4.357000000     2.418000000
H     3.837000000    -4.334000000     2.961000000
H     2.537000000    -5.390000000     2.396000000
C     1.832000000    -3.443000000     3.203000000
C     2.299000000    -2.357000000     3.909000000
H     3.347000000    -2.098000000     4.038000000
C     0.427000000    -3.680000000     3.073000000
C    -0.471000000    -2.857000000     3.710000000
H    -1.543000000    -3.015000000     3.625000000
C    -0.013000000    -1.748000000     4.463000000
O    -0.960000000    -0.855000000     4.809000000
C    -1.238000000     0.232000000     3.946000000
C    -2.757000000     0.507000000     3.747000000
C    -3.720000000    -0.514000000     3.736000000
H    -3.353000000    -1.536000000     3.793000000
C    -3.097000000     1.801000000     3.469000000
H    -2.360000000     2.590000000     3.337000000
O    -0.577000000     1.414000000     4.460000000
H    -0.870000000    -0.141000000     2.978000000
C     1.362000000    -1.506000000     4.537000000
C     1.903000000    -0.294000000     5.261000000
H     2.942000000    -0.381000000     5.586000000
H     1.286000000    -0.130000000     6.147000000
C     1.875000000     0.897000000     4.296000000
C     0.692000000     1.712000000     4.080000000
C     0.722000000     2.824000000     3.242000000
H    -0.210000000     3.269000000     2.902000000
C     1.926000000     3.082000000     2.557000000
O     1.742000000     4.055000000     1.501000000
C     1.704000000     3.514000000     0.157000000
H     1.340000000     2.486000000     0.305000000
C     0.755000000     4.430000000    -0.656000000
C     1.002000000     4.853000000    -1.984000000
H     1.923000000     4.523000000    -2.456000000
C    -0.359000000     5.052000000    -0.058000000
H    -0.646000000     4.720000000     0.937000000
C    -1.292000000     5.832000000    -0.786000000
O    -2.455000000     6.201000000    -0.187000000
C    -1.073000000     5.988000000    -2.158000000
H    -1.810000000     6.557000000    -2.718000000
C     0.100000000     5.667000000    -2.710000000
O     0.340000000     6.047000000    -3.992000000
C     1.308000000     5.360000000    -4.726000000
C     1.093000000     4.047000000    -5.125000000
H     0.291000000     3.492000000    -4.645000000
C     2.340000000     6.055000000    -5.326000000
H     2.528000000     7.085000000    -5.031000000
C     3.276000000     5.423000000    -6.207000000
H     4.117000000     5.957000000    -6.641000000
C     3.061000000     4.123000000    -6.483000000
H     3.770000000     3.652000000    -7.160000000
C     1.973000000     3.404000000    -5.955000000
O     1.591000000     2.183000000    -6.452000000
C     1.354000000     1.090000000    -5.634000000
C     0.147000000     0.434000000    -5.731000000
H    -0.547000000     0.898000000    -6.428000000
C    -0.116000000    -0.698000000    -4.978000000
O    -1.281000000    -1.463000000    -5.194000000
C    -1.234000000    -2.821000000    -5.129000000
C    -1.918000000    -3.536000000    -4.187000000
H    -2.493000000    -2.926000000    -3.495000000
C    -0.424000000    -3.545000000    -6.078000000
H     0.211000000    -3.002000000    -6.773000000
C    -0.404000000    -4.898000000    -6.106000000
H     0.063000000    -5.371000000    -6.966000000
C    -1.163000000    -5.610000000    -5.164000000
H    -1.016000000    -6.687000000    -5.139000000
C    -1.910000000    -4.943000000    -4.189000000
O    -2.577000000    -5.710000000    -3.245000000
C    -2.560000000    -5.391000000    -1.888000000
C    -3.756000000    -5.313000000    -1.219000000
H    -4.684000000    -5.650000000    -1.673000000
C    -3.737000000    -5.045000000     0.183000000
O    -4.941000000    -5.102000000     0.875000000
C    -5.355000000    -4.484000000     2.042000000
C    -5.182000000    -3.117000000     2.284000000
H    -4.578000000    -2.569000000     1.565000000
C    -6.132000000    -5.223000000     2.930000000
H    -6.149000000    -6.307000000     2.857000000
C    -6.771000000    -4.616000000     4.065000000
H    -7.365000000    -5.113000000     4.828000000
C    -6.638000000    -3.285000000     4.246000000
H    -7.028000000    -2.811000000     5.144000000
C    -5.890000000    -2.504000000     3.317000000
O    -6.002000000    -1.128000000     3.443000000
C    -4.996000000    -0.206000000     3.491000000
C    -5.399000000     1.078000000     3.329000000
H    -6.439000000     1.348000000     3.166000000
C    -4.444000000     2.120000000     3.222000000
O    -4.860000000     3.365000000     2.845000000
C    -4.052000000     4.503000000     2.629000000
C    -3.511000000     5.165000000     3.680000000
H    -3.672000000     4.867000000     4.713000000
C    -2.681000000     6.264000000     3.445000000
H    -2.390000000     6.876000000     4.295000000
C    -2.286000000     6.649000000     2.136000000
H    -1.578000000     7.469000000     2.049000000
C    -2.847000000     5.936000000     1.083000000
C    -3.581000000     4.809000000     1.379000000
H    -3.882000000     4.218000000     0.518000000
C    -2.245000000     0.869000000     0.339000000
H    -2.605000000     1.736000000     0.887000000
C    -0.941000000     0.376000000     0.368000000
H    -0.141000000     0.797000000     0.971000000
C    -0.577000000    -0.702000000    -0.355000000
H     0.463000000    -1.025000000    -0.422000000
C    -1.526000000    -1.438000000    -1.060000000
H    -1.213000000    -2.350000000    -1.562000000
C    -2.868000000    -0.983000000    -1.054000000
H    -3.649000000    -1.565000000    -1.536000000
C    -3.279000000     0.193000000    -0.339000000
C    -4.705000000     0.567000000    -0.255000000
O    -5.558000000    -0.136000000    -0.752000000
O    -4.962000000     1.756000000    -0.053000000
O    -7.186000000     5.616000000    -0.539000000
H    -7.187000000     4.791000000    -0.055000000
H    -7.959000000     5.566000000    -1.100000000
O    -3.204000000     3.349000000    -1.514000000
H    -3.735000000     2.718000000    -1.028000000
H    -3.793000000     4.087000000    -1.671000000
O    -9.898000000     2.748000000     0.160000000
H    -8.996000000     2.910000000     0.438000000
H   -10.179000000     3.574000000    -0.234000000
O    -6.511000000    -3.210000000    -3.966000000
H    -6.628000000    -3.704000000    -3.155000000
H    -5.991000000    -3.787000000    -4.525000000
O    -8.088000000     3.082000000    -2.794000000
H    -7.916000000     2.525000000    -2.035000000
H    -8.742000000     2.601000000    -3.302000000
O    -3.286000000     2.531000000    -4.768000000
H    -3.358000000     1.921000000    -4.034000000
H    -3.087000000     3.374000000    -4.360000000
O    -8.989000000    -2.540000000    -2.316000000
H    -9.481000000    -3.357000000    -2.229000000
H    -8.117000000    -2.748000000    -1.981000000
O    -0.918000000     2.052000000    -2.705000000
H    -0.772000000     1.406000000    -2.013000000
H    -1.615000000     2.613000000    -2.366000000
O    -5.778000000    -0.522000000    -3.474000000
H    -5.758000000    -0.533000000    -2.517000000
H    -6.030000000    -1.412000000    -3.718000000
O    -5.771000000     4.388000000    -2.715000000
H    -6.635000000     4.000000000    -2.849000000
H    -5.887000000     4.980000000    -1.971000000
O    -6.468000000    -2.867000000    -1.074000000
H    -6.009000000    -2.066000000    -0.821000000
H    -6.685000000    -3.290000000    -0.243000000
O    -8.267000000     0.609000000     1.711000000
H    -7.396000000     0.214000000     1.668000000
H    -8.669000000     0.394000000     0.869000000
O    -7.609000000     5.150000000     2.555000000
H    -7.306000000     4.329000000     2.166000000
H    -8.528000000     4.988000000     2.771000000
O   -11.143000000     0.657000000    -1.099000000
H   -10.218000000     0.411000000    -1.092000000
H   -11.144000000     1.594000000    -0.903000000
O    -8.365000000     0.048000000    -1.215000000
H    -7.453000000     0.114000000    -0.931000000
H    -8.373000000    -0.688000000    -1.827000000
O    -6.074000000     1.860000000    -4.692000000
H    -5.241000000     2.330000000    -4.656000000
H    -5.907000000     1.040000000    -4.228000000
O    -9.864000000     0.989000000     3.864000000
H    -9.320000000     0.861000000     3.087000000
H   -10.649000000     0.469000000     3.694000000
O    -7.022000000     2.889000000     0.990000000
H    -6.194000000     2.543000000     0.656000000
H    -7.458000000     2.131000000     1.380000000
O    -8.623000000    -2.554000000     1.184000000
H    -8.624000000    -3.111000000     1.962000000
H    -9.457000000    -2.085000000     1.224000000
