215
-1446.66898
C     0.248000000    -0.467000000    -4.467000000
H     0.294000000    -1.496000000    -4.120000000
C     1.104000000     0.536000000    -4.161000000
C     0.971000000     1.845000000    -4.678000000
H     1.748000000     2.573000000    -4.459000000
C     2.281000000     0.139000000    -3.186000000
O     2.958000000    -0.959000000    -3.622000000
H     1.950000000    -0.010000000    -2.148000000
O     3.213000000     1.234000000    -3.167000000
C     3.764000000     1.581000000    -1.979000000
C     3.349000000     2.768000000    -1.445000000
H     2.785000000     3.476000000    -2.048000000
C     3.706000000     3.154000000    -0.153000000
O     3.056000000     4.245000000     0.351000000
C     4.332000000     2.208000000     0.669000000
C     4.540000000     2.546000000     2.174000000
H     5.473000000     2.033000000     2.420000000
C     3.379000000     2.095000000     3.103000000
C     3.452000000     0.807000000     3.576000000
H     4.304000000     0.165000000     3.368000000
H     4.785000000     3.604000000     2.292000000
C     4.864000000     1.052000000     0.134000000
H     5.425000000     0.328000000     0.721000000
C     4.606000000     0.746000000    -1.191000000
C     5.221000000    -0.486000000    -1.874000000
H     6.230000000    -0.698000000    -1.513000000
H     5.218000000    -0.372000000    -2.960000000
C     4.325000000    -1.709000000    -1.719000000
C     4.283000000    -2.333000000    -0.524000000
H     5.042000000    -2.041000000     0.198000000
C     3.294000000    -1.934000000    -2.646000000
C     2.429000000    -3.015000000    -2.425000000
H     1.643000000    -3.235000000    -3.144000000
C     2.496000000    -3.760000000    -1.270000000
O     1.577000000    -4.802000000    -1.062000000
C     0.450000000    -4.406000000    -0.283000000
C    -0.879000000    -5.024000000    -0.699000000
C    -1.903000000    -5.444000000     0.191000000
H    -1.855000000    -5.252000000     1.259000000
C    -1.163000000    -5.002000000    -2.105000000
H    -0.411000000    -4.666000000    -2.815000000
O     0.798000000    -4.938000000     1.008000000
H     0.363000000    -3.320000000    -0.132000000
C     3.403000000    -3.389000000    -0.253000000
C     3.546000000    -4.169000000     1.034000000
H     4.506000000    -3.915000000     1.488000000
H     3.593000000    -5.248000000     0.873000000
C     2.586000000    -3.740000000     2.103000000
C     2.916000000    -2.752000000     3.027000000
H     3.948000000    -2.467000000     3.213000000
C     1.240000000    -4.067000000     1.951000000
C     0.272000000    -3.400000000     2.688000000
H    -0.765000000    -3.683000000     2.529000000
C     0.638000000    -2.475000000     3.665000000
O    -0.349000000    -1.831000000     4.415000000
C    -0.674000000    -0.504000000     4.030000000
C    -2.172000000    -0.300000000     3.889000000
C    -3.022000000    -1.303000000     3.352000000
H    -2.531000000    -2.218000000     3.029000000
C    -2.749000000     0.911000000     4.300000000
H    -2.105000000     1.682000000     4.716000000
O    -0.024000000     0.493000000     4.783000000
H    -0.342000000    -0.418000000     2.985000000
C     1.977000000    -2.186000000     3.887000000
C     2.475000000    -1.145000000     4.891000000
H     3.502000000    -1.419000000     5.143000000
H     1.952000000    -1.259000000     5.843000000
C     2.401000000     0.273000000     4.261000000
C     1.167000000     1.027000000     4.333000000
C     1.156000000     2.278000000     3.876000000
H     0.331000000     2.973000000     4.004000000
C     2.231000000     2.837000000     3.222000000
O     2.061000000     4.078000000     2.570000000
C     1.764000000     3.964000000     1.115000000
H     1.528000000     2.918000000     0.873000000
C     0.654000000     4.901000000     0.644000000
C     0.815000000     5.578000000    -0.527000000
H     1.722000000     5.746000000    -1.102000000
C    -0.564000000     4.966000000     1.292000000
H    -0.675000000     4.415000000     2.223000000
C    -1.597000000     5.724000000     0.814000000
O    -2.779000000     5.725000000     1.435000000
C    -1.434000000     6.502000000    -0.368000000
H    -2.273000000     7.073000000    -0.758000000
C    -0.249000000     6.332000000    -1.088000000
O    -0.192000000     6.878000000    -2.374000000
C     0.352000000     6.260000000    -3.414000000
C    -0.347000000     5.127000000    -3.857000000
H    -1.252000000     4.786000000    -3.361000000
C     1.463000000     6.802000000    -4.068000000
H     1.829000000     7.743000000    -3.666000000
C     1.935000000     6.153000000    -5.187000000
H     2.839000000     6.547000000    -5.644000000
C     1.317000000     5.037000000    -5.690000000
H     1.724000000     4.481000000    -6.530000000
C     0.129000000     4.585000000    -5.067000000
O    -0.550000000     3.484000000    -5.589000000
C    -0.246000000     2.175000000    -5.320000000
C    -1.203000000     1.250000000    -5.463000000
H    -2.114000000     1.558000000    -5.968000000
C    -0.940000000    -0.097000000    -5.094000000
O    -1.977000000    -0.938000000    -5.271000000
C    -1.829000000    -2.210000000    -5.585000000
C    -2.249000000    -3.138000000    -4.625000000
H    -2.597000000    -2.819000000    -3.646000000
C    -1.377000000    -2.651000000    -6.866000000
H    -1.082000000    -1.983000000    -7.671000000
C    -1.305000000    -4.022000000    -7.063000000
H    -0.989000000    -4.416000000    -8.026000000
C    -1.658000000    -4.920000000    -6.087000000
H    -1.480000000    -5.958000000    -6.356000000
C    -2.048000000    -4.505000000    -4.864000000
O    -2.637000000    -5.404000000    -3.967000000
C    -2.358000000    -5.447000000    -2.614000000
C    -3.354000000    -5.808000000    -1.740000000
H    -4.282000000    -6.192000000    -2.156000000
C    -3.118000000    -5.820000000    -0.346000000
O    -4.177000000    -6.104000000     0.435000000
C    -4.411000000    -5.492000000     1.629000000
C    -4.722000000    -4.130000000     1.580000000
H    -4.657000000    -3.603000000     0.631000000
C    -4.434000000    -6.208000000     2.800000000
H    -4.011000000    -7.203000000     2.908000000
C    -4.789000000    -5.567000000     3.988000000
H    -4.755000000    -6.136000000     4.914000000
C    -5.063000000    -4.186000000     3.881000000
H    -5.501000000    -3.679000000     4.738000000
C    -4.929000000    -3.474000000     2.701000000
O    -5.199000000    -2.085000000     2.628000000
C    -4.405000000    -1.116000000     3.146000000
C    -4.919000000     0.073000000     3.657000000
H    -5.982000000     0.215000000     3.475000000
C    -4.104000000     1.118000000     4.151000000
O    -4.605000000     2.386000000     4.401000000
C    -3.884000000     3.509000000     4.154000000
C    -3.516000000     4.293000000     5.267000000
H    -3.748000000     3.864000000     6.238000000
C    -2.771000000     5.489000000     5.080000000
H    -2.574000000     6.008000000     6.014000000
C    -2.508000000     5.943000000     3.759000000
H    -2.051000000     6.915000000     3.598000000
C    -3.008000000     5.180000000     2.694000000
C    -3.558000000     3.922000000     2.862000000
H    -3.888000000     3.322000000     2.018000000
C    -2.308000000     0.734000000     0.798000000
H    -2.940000000     1.410000000     1.368000000
C    -0.886000000     0.899000000     0.898000000
H    -0.543000000     1.625000000     1.631000000
C    -0.019000000     0.073000000     0.124000000
H     1.117000000     0.288000000     0.171000000
C    -0.536000000    -0.825000000    -0.803000000
H     0.046000000    -1.453000000    -1.472000000
C    -1.870000000    -0.978000000    -0.860000000
H    -2.336000000    -1.695000000    -1.531000000
C    -2.765000000    -0.214000000    -0.039000000
C    -4.227000000    -0.323000000    -0.372000000
O    -4.584000000    -1.050000000    -1.314000000
O    -5.020000000     0.344000000     0.314000000
O    -9.945000000    -3.265000000    -2.010000000
H    -9.579000000    -2.792000000    -1.263000000
H   -10.735000000    -3.682000000    -1.666000000
O    -8.919000000     4.055000000    -1.359000000
H    -8.774000000     3.749000000    -0.463000000
H    -8.766000000     3.283000000    -1.903000000
O    -4.546000000     2.941000000    -1.270000000
H    -4.294000000     2.463000000    -0.480000000
H    -5.460000000     3.184000000    -1.122000000
O    -8.353000000     1.351000000     3.247000000
H    -8.593000000     0.476000000     3.552000000
H    -8.240000000     1.861000000     4.049000000
O   -10.024000000     2.526000000     0.778000000
H    -9.144000000     2.456000000     1.147000000
H   -10.529000000     2.985000000     1.450000000
O    -6.918000000    -4.468000000    -4.630000000
H    -6.590000000    -3.757000000    -4.081000000
H    -6.626000000    -4.242000000    -5.514000000
O    -5.534000000     2.247000000    -3.933000000
H    -5.332000000     1.311000000    -3.956000000
H    -5.193000000     2.545000000    -3.089000000
O    -7.988000000    -1.362000000    -4.311000000
H    -7.708000000    -0.448000000    -4.243000000
H    -7.548000000    -1.801000000    -3.582000000
O    -4.671000000    -0.501000000    -3.986000000
H    -4.797000000    -0.704000000    -3.059000000
H    -3.778000000    -0.790000000    -4.175000000
O    -8.111000000     2.099000000    -3.144000000
H    -8.116000000     1.217000000    -2.773000000
H    -7.192000000     2.263000000    -3.358000000
O    -6.337000000    -2.663000000    -2.369000000
H    -5.569000000    -2.345000000    -1.895000000
H    -6.757000000    -3.273000000    -1.762000000
O    -5.585000000    -0.732000000    -6.598000000
H    -5.425000000    -0.582000000    -5.666000000
H    -5.189000000     0.023000000    -7.033000000
O    -9.192000000    -1.779000000     0.140000000
H    -9.630000000    -1.539000000     0.956000000
H    -8.831000000    -0.955000000    -0.190000000
O    -6.377000000     4.700000000     1.488000000
H    -6.554000000     3.781000000     1.284000000
H    -6.712000000     4.816000000     2.377000000
O    -7.022000000    -0.063000000    -1.857000000
H    -6.882000000    -0.999000000    -1.997000000
H    -6.309000000     0.202000000    -1.277000000
O    -8.235000000    -3.353000000     2.688000000
H    -7.331000000    -3.165000000     2.434000000
H    -8.176000000    -4.157000000     3.205000000
O    -6.907000000     2.091000000     0.967000000
H    -6.466000000     1.303000000     0.648000000
H    -7.352000000     1.809000000     1.767000000
O    -3.892000000     5.132000000    -2.743000000
H    -3.984000000     5.813000000    -2.076000000
H    -3.852000000     4.315000000    -2.246000000
O    -7.430000000    -4.015000000    -0.318000000
H    -8.098000000    -3.337000000    -0.207000000
H    -7.723000000    -4.733000000     0.243000000
