215
-1444.23900
C     0.215000000    -0.335000000    -4.437000000
H     0.464000000    -1.390000000    -4.352000000
C     1.158000000     0.622000000    -3.979000000
C     0.846000000     1.983000000    -4.155000000
H     1.607000000     2.644000000    -3.748000000
C     2.333000000     0.094000000    -3.080000000
O     3.043000000    -1.157000000    -3.558000000
H     1.943000000    -0.010000000    -2.056000000
O     3.328000000     1.115000000    -3.047000000
C     3.861000000     1.415000000    -1.779000000
C     3.412000000     2.648000000    -1.268000000
H     2.741000000     3.255000000    -1.870000000
C     3.730000000     2.993000000     0.060000000
O     3.201000000     4.073000000     0.626000000
C     4.515000000     2.139000000     0.799000000
C     4.759000000     2.378000000     2.266000000
H     5.625000000     1.776000000     2.547000000
C     3.633000000     1.932000000     3.162000000
C     3.622000000     0.572000000     3.557000000
H     4.510000000    -0.044000000     3.443000000
H     4.980000000     3.443000000     2.367000000
C     5.082000000     0.947000000     0.254000000
H     5.725000000     0.330000000     0.877000000
C     4.689000000     0.553000000    -1.027000000
C     5.282000000    -0.712000000    -1.627000000
H     6.203000000    -1.033000000    -1.137000000
H     5.611000000    -0.364000000    -2.608000000
C     4.349000000    -1.886000000    -1.662000000
C     4.459000000    -2.892000000    -0.580000000
H     5.175000000    -2.728000000     0.221000000
C     3.288000000    -2.009000000    -2.614000000
C     2.378000000    -2.998000000    -2.496000000
H     1.571000000    -3.049000000    -3.222000000
C     2.486000000    -4.015000000    -1.545000000
O     1.428000000    -4.888000000    -1.455000000
C     0.299000000    -4.467000000    -0.618000000
C    -1.049000000    -4.850000000    -1.078000000
C    -2.099000000    -5.319000000    -0.230000000
H    -2.024000000    -5.430000000     0.848000000
C    -1.324000000    -4.681000000    -2.454000000
H    -0.566000000    -4.307000000    -3.137000000
O     0.513000000    -5.013000000     0.636000000
H     0.216000000    -3.370000000    -0.591000000
C     3.454000000    -3.944000000    -0.555000000
C     3.400000000    -4.788000000     0.704000000
H     4.372000000    -4.924000000     1.181000000
H     3.011000000    -5.774000000     0.441000000
C     2.410000000    -4.055000000     1.701000000
C     2.882000000    -3.144000000     2.654000000
H     3.939000000    -2.914000000     2.766000000
C     1.009000000    -4.190000000     1.549000000
C     0.119000000    -3.526000000     2.369000000
H    -0.931000000    -3.804000000     2.343000000
C     0.640000000    -2.676000000     3.331000000
O    -0.301000000    -2.037000000     4.032000000
C    -0.448000000    -0.665000000     3.584000000
C    -1.965000000    -0.442000000     3.551000000
C    -2.884000000    -1.348000000     2.968000000
H    -2.502000000    -2.236000000     2.471000000
C    -2.522000000     0.839000000     3.956000000
H    -1.926000000     1.499000000     4.581000000
O     0.115000000     0.250000000     4.536000000
H    -0.058000000    -0.453000000     2.578000000
C     1.992000000    -2.430000000     3.517000000
C     2.487000000    -1.496000000     4.660000000
H     3.525000000    -1.691000000     4.941000000
H     1.877000000    -1.479000000     5.566000000
C     2.465000000    -0.087000000     4.068000000
C     1.391000000     0.778000000     4.309000000
C     1.336000000     2.161000000     3.939000000
H     0.448000000     2.750000000     4.154000000
C     2.453000000     2.703000000     3.381000000
O     2.278000000     3.982000000     2.882000000
C     1.968000000     3.897000000     1.409000000
H     1.447000000     2.948000000     1.214000000
C     0.866000000     4.900000000     1.098000000
C     0.972000000     5.590000000    -0.076000000
H     1.903000000     5.572000000    -0.637000000
C    -0.299000000     5.027000000     1.886000000
H    -0.315000000     4.536000000     2.855000000
C    -1.313000000     5.901000000     1.502000000
O    -2.470000000     6.004000000     2.203000000
C    -1.256000000     6.486000000     0.282000000
H    -2.035000000     7.166000000    -0.053000000
C    -0.116000000     6.338000000    -0.507000000
O    -0.081000000     7.009000000    -1.691000000
C     0.237000000     6.548000000    -2.900000000
C    -0.229000000     5.351000000    -3.334000000
H    -0.823000000     4.648000000    -2.756000000
C     1.088000000     7.318000000    -3.720000000
H     1.464000000     8.238000000    -3.280000000
C     1.382000000     6.891000000    -5.021000000
H     1.940000000     7.453000000    -5.766000000
C     0.775000000     5.702000000    -5.475000000
H     1.102000000     5.368000000    -6.456000000
C     0.017000000     4.875000000    -4.602000000
O    -0.564000000     3.725000000    -4.994000000
C    -0.296000000     2.411000000    -4.824000000
C    -1.166000000     1.450000000    -5.232000000
H    -2.113000000     1.737000000    -5.682000000
C    -0.937000000     0.118000000    -5.055000000
O    -1.985000000    -0.735000000    -5.555000000
C    -1.775000000    -2.014000000    -5.904000000
C    -2.126000000    -2.949000000    -4.919000000
H    -2.588000000    -2.579000000    -4.008000000
C    -1.338000000    -2.370000000    -7.173000000
H    -1.166000000    -1.585000000    -7.904000000
C    -1.349000000    -3.759000000    -7.479000000
H    -1.126000000    -4.209000000    -8.444000000
C    -1.779000000    -4.696000000    -6.506000000
H    -1.717000000    -5.757000000    -6.735000000
C    -2.100000000    -4.314000000    -5.220000000
O    -2.630000000    -5.262000000    -4.288000000
C    -2.476000000    -5.208000000    -2.978000000
C    -3.528000000    -5.663000000    -2.196000000
H    -4.503000000    -6.002000000    -2.534000000
C    -3.316000000    -5.677000000    -0.745000000
O    -4.395000000    -6.037000000     0.063000000
C    -4.609000000    -5.333000000     1.225000000
C    -4.606000000    -3.954000000     1.246000000
H    -4.545000000    -3.467000000     0.276000000
C    -4.882000000    -6.063000000     2.373000000
H    -4.685000000    -7.131000000     2.318000000
C    -5.117000000    -5.441000000     3.587000000
H    -5.295000000    -6.028000000     4.484000000
C    -5.164000000    -4.006000000     3.614000000
H    -5.408000000    -3.515000000     4.553000000
C    -4.953000000    -3.290000000     2.437000000
O    -5.170000000    -1.959000000     2.449000000
C    -4.255000000    -1.085000000     2.950000000
C    -4.815000000     0.205000000     3.279000000
H    -5.897000000     0.307000000     3.283000000
C    -3.906000000     1.137000000     3.766000000
O    -4.505000000     2.283000000     4.381000000
C    -3.809000000     3.518000000     4.460000000
C    -3.517000000     4.040000000     5.675000000
H    -3.760000000     3.554000000     6.616000000
C    -2.804000000     5.274000000     5.784000000
H    -2.506000000     5.705000000     6.736000000
C    -2.474000000     5.914000000     4.600000000
H    -1.899000000     6.834000000     4.667000000
C    -2.835000000     5.422000000     3.340000000
C    -3.440000000     4.164000000     3.328000000
H    -3.643000000     3.731000000     2.352000000
C    -2.180000000     1.192000000    -0.269000000
H    -3.000000000     1.905000000    -0.276000000
C    -0.811000000     1.566000000     0.085000000
H    -0.544000000     2.599000000     0.295000000
C     0.216000000     0.621000000     0.106000000
H     1.284000000     0.900000000     0.312000000
C    -0.050000000    -0.687000000    -0.152000000
H     0.683000000    -1.489000000    -0.117000000
C    -1.361000000    -1.007000000    -0.463000000
H    -1.683000000    -2.041000000    -0.546000000
C    -2.440000000    -0.079000000    -0.570000000
C    -3.819000000    -0.550000000    -1.063000000
O    -3.980000000    -1.657000000    -1.454000000
O    -4.712000000     0.352000000    -1.168000000
O    -9.230000000    -2.512000000    -2.639000000
H    -8.887000000    -3.262000000    -2.155000000
H    -8.451000000    -2.057000000    -2.960000000
O    -6.035000000     2.982000000    -1.338000000
H    -5.562000000     2.189000000    -1.591000000
H    -6.076000000     2.943000000    -0.383000000
O    -6.467000000    -5.181000000    -4.098000000
H    -6.137000000    -4.498000000    -3.514000000
H    -5.862000000    -5.174000000    -4.840000000
O    -5.533000000     4.571000000    -4.725000000
H    -4.679000000     4.828000000    -5.071000000
H    -5.600000000     5.030000000    -3.887000000
O    -8.233000000    -1.446000000    -6.840000000
H    -8.677000000    -2.294000000    -6.851000000
H    -7.765000000    -1.432000000    -6.005000000
O    -6.188000000     2.105000000    -5.698000000
H    -6.118000000     2.881000000    -5.143000000
H    -5.829000000     1.396000000    -5.165000000
O    -6.704000000    -1.355000000    -4.215000000
H    -6.903000000    -0.665000000    -3.582000000
H    -6.191000000    -1.994000000    -3.720000000
O    -4.370000000     0.732000000    -3.917000000
H    -4.801000000     0.422000000    -3.121000000
H    -3.435000000     0.698000000    -3.712000000
O    -8.151000000     2.889000000    -3.203000000
H    -8.662000000     2.110000000    -2.982000000
H    -7.507000000     2.960000000    -2.499000000
O    -5.960000000    -3.395000000    -2.110000000
H    -5.233000000    -2.888000000    -1.750000000
H    -6.502000000    -3.608000000    -1.351000000
O    -5.122000000    -2.201000000    -6.465000000
H    -5.728000000    -1.682000000    -5.936000000
H    -4.256000000    -1.979000000    -6.122000000
O    -8.824000000     0.763000000     0.298000000
H    -8.858000000     1.202000000     1.147000000
H    -9.692000000     0.373000000     0.195000000
O    -7.210000000     3.982000000     1.931000000
H    -6.657000000     3.296000000     1.556000000
H    -7.728000000     4.302000000     1.192000000
O    -7.309000000    -0.187000000    -1.867000000
H    -7.857000000     0.273000000    -1.232000000
H    -6.435000000    -0.186000000    -1.475000000
O    -9.160000000     0.885000000    -5.070000000
H    -8.405000000     1.473000000    -5.090000000
H    -8.934000000     0.183000000    -5.680000000
O    -2.487000000    -3.661000000     5.812000000
H    -2.982000000    -4.289000000     6.338000000
H    -2.846000000    -3.752000000     4.929000000
O    -5.990000000     1.676000000     1.044000000
H    -5.235000000     1.112000000     0.878000000
H    -6.668000000     1.348000000     0.454000000
O    -5.824000000     5.812000000    -2.219000000
H    -5.773000000     6.329000000    -1.415000000
H    -6.075000000     4.936000000    -1.924000000
O    -7.726000000    -3.520000000    -0.080000000
H    -8.093000000    -2.647000000     0.060000000
H    -7.916000000    -3.993000000     0.730000000
