215
-1481.99664
C     0.345000000    -0.956000000    -4.483000000
H     0.363000000    -1.968000000    -4.086000000
C     1.312000000     0.004000000    -4.257000000
C     1.108000000     1.343000000    -4.690000000
H     1.871000000     2.075000000    -4.435000000
C     2.467000000    -0.349000000    -3.360000000
O     3.018000000    -1.662000000    -3.728000000
H     2.112000000    -0.354000000    -2.319000000
O     3.545000000     0.644000000    -3.373000000
C     4.047000000     1.100000000    -2.152000000
C     3.581000000     2.275000000    -1.739000000
H     2.969000000     2.865000000    -2.416000000
C     3.883000000     2.752000000    -0.414000000
O     3.274000000     3.876000000     0.005000000
C     4.608000000     1.933000000     0.469000000
C     4.851000000     2.346000000     1.888000000
H     5.672000000     1.768000000     2.317000000
C     3.722000000     1.947000000     2.844000000
C     3.722000000     0.724000000     3.505000000
H     4.536000000     0.025000000     3.335000000
H     5.164000000     3.389000000     1.981000000
C     5.078000000     0.660000000    -0.009000000
H     5.644000000    -0.005000000     0.639000000
C     4.760000000     0.258000000    -1.292000000
C     5.201000000    -1.145000000    -1.764000000
H     6.141000000    -1.422000000    -1.283000000
H     5.554000000    -1.081000000    -2.795000000
C     4.132000000    -2.293000000    -1.659000000
C     4.011000000    -2.921000000    -0.404000000
H     4.834000000    -2.694000000     0.269000000
C     3.114000000    -2.508000000    -2.647000000
C     2.156000000    -3.421000000    -2.478000000
H     1.430000000    -3.513000000    -3.282000000
C     2.023000000    -3.990000000    -1.208000000
O     0.865000000    -4.732000000    -1.132000000
C    -0.212000000    -4.381000000    -0.120000000
C    -1.584000000    -4.867000000    -0.582000000
C    -2.583000000    -5.034000000     0.344000000
H    -2.432000000    -4.849000000     1.405000000
C    -1.737000000    -5.158000000    -1.949000000
H    -0.955000000    -4.903000000    -2.659000000
O     0.093000000    -4.905000000     1.219000000
H    -0.163000000    -3.290000000     0.016000000
C     2.978000000    -3.814000000    -0.207000000
C     2.942000000    -4.593000000     1.057000000
H     3.945000000    -4.686000000     1.479000000
H     2.567000000    -5.612000000     0.939000000
C     2.108000000    -3.928000000     2.111000000
C     2.680000000    -2.979000000     3.007000000
H     3.739000000    -2.734000000     3.015000000
C     0.692000000    -4.079000000     2.103000000
C    -0.071000000    -3.272000000     2.998000000
H    -1.149000000    -3.401000000     2.950000000
C     0.495000000    -2.310000000     3.813000000
O    -0.308000000    -1.527000000     4.649000000
C    -0.536000000    -0.229000000     4.101000000
C    -1.996000000     0.221000000     3.965000000
C    -2.808000000    -0.616000000     3.271000000
H    -2.523000000    -1.578000000     2.855000000
C    -2.444000000     1.469000000     4.364000000
H    -1.809000000     2.187000000     4.876000000
O     0.266000000     0.735000000     4.851000000
H    -0.163000000    -0.213000000     3.066000000
C     1.895000000    -2.159000000     3.820000000
C     2.573000000    -1.203000000     4.719000000
H     3.509000000    -1.599000000     5.118000000
H     1.966000000    -1.210000000     5.627000000
C     2.593000000     0.293000000     4.229000000
C     1.500000000     1.184000000     4.306000000
C     1.468000000     2.392000000     3.643000000
H     0.586000000     3.023000000     3.721000000
C     2.602000000     2.789000000     3.001000000
O     2.560000000     3.975000000     2.216000000
C     2.092000000     3.791000000     0.891000000
H     1.584000000     2.826000000     0.752000000
C     1.018000000     4.810000000     0.493000000
C     0.946000000     5.207000000    -0.837000000
H     1.768000000     4.874000000    -1.467000000
C     0.081000000     5.249000000     1.425000000
H     0.049000000     4.846000000     2.434000000
C    -0.975000000     5.988000000     0.904000000
O    -1.959000000     6.430000000     1.731000000
C    -0.938000000     6.510000000    -0.411000000
H    -1.799000000     7.068000000    -0.769000000
C     0.025000000     6.137000000    -1.281000000
O    -0.056000000     6.567000000    -2.597000000
C     0.465000000     5.850000000    -3.678000000
C    -0.224000000     4.734000000    -4.156000000
H    -1.208000000     4.544000000    -3.737000000
C     1.761000000     6.200000000    -4.166000000
H     2.373000000     6.996000000    -3.750000000
C     2.317000000     5.424000000    -5.240000000
H     3.265000000     5.763000000    -5.650000000
C     1.574000000     4.357000000    -5.788000000
H     1.945000000     3.936000000    -6.719000000
C     0.299000000     4.065000000    -5.239000000
O    -0.397000000     2.989000000    -5.727000000
C    -0.059000000     1.698000000    -5.326000000
C    -0.960000000     0.697000000    -5.657000000
H    -1.765000000     0.968000000    -6.336000000
C    -0.845000000    -0.580000000    -5.196000000
O    -1.947000000    -1.381000000    -5.268000000
C    -1.693000000    -2.769000000    -5.395000000
C    -2.554000000    -3.534000000    -4.659000000
H    -3.264000000    -2.980000000    -4.050000000
C    -0.766000000    -3.302000000    -6.316000000
H    -0.132000000    -2.700000000    -6.962000000
C    -0.676000000    -4.714000000    -6.428000000
H     0.031000000    -5.197000000    -7.099000000
C    -1.574000000    -5.512000000    -5.654000000
H    -1.581000000    -6.599000000    -5.681000000
C    -2.534000000    -4.932000000    -4.741000000
O    -3.307000000    -5.659000000    -3.838000000
C    -3.044000000    -5.478000000    -2.441000000
C    -4.056000000    -5.689000000    -1.493000000
H    -5.007000000    -6.066000000    -1.861000000
C    -3.881000000    -5.354000000    -0.125000000
O    -4.872000000    -5.549000000     0.773000000
C    -5.053000000    -4.652000000     1.817000000
C    -4.949000000    -3.295000000     1.484000000
H    -4.667000000    -2.936000000     0.498000000
C    -5.506000000    -5.111000000     3.106000000
H    -5.711000000    -6.151000000     3.344000000
C    -5.726000000    -4.104000000     4.052000000
H    -6.138000000    -4.302000000     5.039000000
C    -5.595000000    -2.747000000     3.735000000
H    -5.734000000    -1.983000000     4.496000000
C    -5.136000000    -2.363000000     2.452000000
O    -4.965000000    -1.021000000     2.130000000
C    -4.132000000    -0.203000000     2.927000000
C    -4.590000000     1.060000000     3.357000000
H    -5.575000000     1.410000000     3.058000000
C    -3.760000000     1.891000000     4.046000000
O    -4.244000000     3.110000000     4.397000000
C    -3.524000000     4.270000000     4.240000000
C    -3.470000000     5.114000000     5.351000000
H    -3.926000000     4.918000000     6.319000000
C    -2.861000000     6.314000000     5.222000000
H    -2.682000000     6.969000000     6.071000000
C    -2.391000000     6.785000000     3.988000000
H    -2.065000000     7.815000000     3.861000000
C    -2.476000000     5.931000000     2.928000000
C    -2.959000000     4.645000000     3.064000000
H    -3.078000000     3.983000000     2.210000000
C    -1.854000000     1.246000000     0.496000000
H    -2.555000000     1.956000000     0.927000000
C    -0.525000000     1.140000000     0.991000000
H    -0.176000000     1.857000000     1.730000000
C     0.309000000     0.122000000     0.483000000
H     1.382000000    -0.012000000     0.846000000
C    -0.123000000    -0.750000000    -0.483000000
H     0.485000000    -1.551000000    -0.895000000
C    -1.490000000    -0.630000000    -0.892000000
H    -1.926000000    -1.325000000    -1.606000000
C    -2.379000000     0.301000000    -0.405000000
C    -3.848000000     0.381000000    -0.836000000
O    -4.235000000    -0.292000000    -1.776000000
O    -4.454000000     1.355000000    -0.439000000
O    -5.969000000     5.869000000     1.927000000
H    -5.517000000     6.611000000     1.525000000
H    -5.724000000     5.118000000     1.387000000
O    -3.457000000     3.846000000    -0.768000000
H    -3.977000000     3.043000000    -0.784000000
H    -2.731000000     3.673000000    -1.368000000
O    -8.567000000    -0.350000000     3.544000000
H    -8.230000000    -0.463000000     4.433000000
H    -8.011000000     0.330000000     3.162000000
O    -7.544000000    -4.345000000    -2.944000000
H    -7.111000000    -3.623000000    -2.488000000
H    -6.838000000    -4.787000000    -3.416000000
O    -7.566000000     3.059000000    -6.127000000
H    -8.050000000     3.003000000    -6.951000000
H    -7.265000000     2.165000000    -5.965000000
O    -9.628000000    -2.175000000    -2.123000000
H   -10.384000000    -2.457000000    -1.607000000
H    -8.906000000    -2.718000000    -1.806000000
O    -4.377000000     3.351000000    -4.021000000
H    -4.312000000     3.857000000    -4.831000000
H    -3.945000000     2.521000000    -4.222000000
O    -5.361000000    -0.368000000    -6.373000000
H    -4.617000000     0.058000000    -5.948000000
H    -6.061000000    -0.334000000    -5.721000000
O    -3.892000000     0.652000000    -4.225000000
H    -4.434000000     0.533000000    -3.445000000
H    -3.203000000    -0.007000000    -4.141000000
O    -8.067000000    -2.624000000     0.294000000
H    -8.769000000    -3.242000000     0.495000000
H    -7.784000000    -2.296000000     1.147000000
O    -8.306000000     0.379000000    -1.620000000
H    -9.233000000     0.599000000    -1.703000000
H    -7.846000000     1.164000000    -1.917000000
O    -5.993000000    -2.120000000    -1.858000000
H    -5.355000000    -1.418000000    -1.733000000
H    -6.655000000    -1.964000000    -1.185000000
O    -4.898000000     6.183000000    -1.047000000
H    -4.313000000     5.502000000    -0.715000000
H    -5.774000000     5.886000000    -0.802000000
O    -7.963000000     2.527000000     2.578000000
H    -8.919000000     2.580000000     2.560000000
H    -7.747000000     1.881000000     1.906000000
O    -6.206000000     2.212000000    -2.499000000
H    -5.554000000     2.694000000    -3.009000000
H    -5.690000000     1.623000000    -1.947000000
O    -7.300000000     0.236000000    -4.135000000
H    -7.389000000    -0.191000000    -3.284000000
H    -7.180000000     1.163000000    -3.927000000
O    -6.094000000     3.472000000     0.479000000
H    -5.503000000     2.725000000     0.378000000
H    -6.666000000     3.228000000     1.207000000
O    -8.500000000     4.186000000    -1.116000000
H    -7.637000000     3.861000000    -0.860000000
H    -8.988000000     4.242000000    -0.295000000
O    -7.036000000     0.513000000     0.840000000
H    -6.195000000     0.704000000     0.426000000
H    -7.596000000     0.220000000     0.121000000
