215
-1446.20940
C    -3.810000000     1.686000000    -4.181000000
H    -3.884000000     0.700000000    -4.632000000
C    -2.500000000     2.132000000    -3.851000000
C    -2.325000000     3.281000000    -3.054000000
H    -1.351000000     3.614000000    -2.707000000
C    -1.149000000     1.370000000    -4.131000000
O    -1.309000000     0.321000000    -5.085000000
H    -0.873000000     1.005000000    -3.131000000
O     0.002000000     2.201000000    -4.534000000
C     1.258000000     1.980000000    -4.025000000
C     1.852000000     2.935000000    -3.230000000
H     1.308000000     3.864000000    -3.082000000
C     3.082000000     2.638000000    -2.606000000
O     3.471000000     3.396000000    -1.500000000
C     3.755000000     1.503000000    -2.982000000
C     5.081000000     1.011000000    -2.342000000
H     5.632000000     0.350000000    -3.014000000
C     4.882000000     0.206000000    -1.011000000
C     4.927000000    -1.221000000    -1.040000000
H     5.166000000    -1.680000000    -1.996000000
H     5.612000000     1.955000000    -2.205000000
C     3.234000000     0.632000000    -3.948000000
H     3.690000000    -0.353000000    -3.998000000
C     1.974000000     0.834000000    -4.479000000
C     1.370000000    -0.196000000    -5.418000000
H     2.226000000    -0.702000000    -5.869000000
H     0.859000000     0.248000000    -6.275000000
C     0.465000000    -1.147000000    -4.762000000
C     0.931000000    -2.336000000    -4.235000000
H     1.983000000    -2.526000000    -4.435000000
C    -0.885000000    -0.845000000    -4.657000000
C    -1.764000000    -1.679000000    -3.921000000
H    -2.782000000    -1.325000000    -3.782000000
C    -1.248000000    -2.839000000    -3.378000000
O    -2.154000000    -3.490000000    -2.523000000
C    -1.800000000    -3.505000000    -1.076000000
C    -3.021000000    -3.335000000    -0.200000000
C    -3.035000000    -3.953000000     1.076000000
H    -2.175000000    -4.538000000     1.390000000
C    -4.081000000    -2.541000000    -0.566000000
H    -4.067000000    -2.134000000    -1.574000000
O    -1.021000000    -4.677000000    -0.792000000
H    -1.247000000    -2.558000000    -0.985000000
C     0.083000000    -3.248000000    -3.582000000
C     0.584000000    -4.558000000    -3.088000000
H     1.368000000    -4.924000000    -3.755000000
H    -0.310000000    -5.182000000    -3.153000000
C     1.161000000    -4.356000000    -1.642000000
C     2.498000000    -3.974000000    -1.407000000
H     3.189000000    -3.974000000    -2.246000000
C     0.281000000    -4.580000000    -0.560000000
C     0.746000000    -4.356000000     0.755000000
H     0.034000000    -4.476000000     1.567000000
C     2.041000000    -4.035000000     0.991000000
O     2.538000000    -3.737000000     2.235000000
C     2.493000000    -2.327000000     2.468000000
C     1.874000000    -1.962000000     3.799000000
C     1.081000000    -2.888000000     4.561000000
H     1.056000000    -3.946000000     4.312000000
C     1.934000000    -0.617000000     4.194000000
H     2.585000000     0.111000000     3.716000000
O     3.921000000    -1.863000000     2.490000000
H     1.943000000    -1.824000000     1.659000000
C     2.992000000    -3.830000000    -0.095000000
C     4.504000000    -3.396000000     0.035000000
H     4.995000000    -3.796000000    -0.855000000
H     4.942000000    -3.786000000     0.955000000
C     4.634000000    -1.944000000     0.100000000
C     4.376000000    -1.246000000     1.329000000
C     4.426000000     0.143000000     1.329000000
H     4.070000000     0.663000000     2.215000000
C     4.683000000     0.854000000     0.192000000
O     4.582000000     2.251000000     0.239000000
C     3.311000000     2.858000000    -0.205000000
H     2.457000000     2.167000000    -0.147000000
C     2.853000000     4.017000000     0.711000000
C     1.784000000     4.825000000     0.270000000
H     1.267000000     4.648000000    -0.670000000
C     3.445000000     4.234000000     1.989000000
H     4.400000000     3.819000000     2.300000000
C     2.700000000     4.959000000     2.906000000
O     3.197000000     5.113000000     4.214000000
C     1.591000000     5.612000000     2.572000000
H     1.124000000     6.184000000     3.370000000
C     1.145000000     5.632000000     1.250000000
O     0.041000000     6.387000000     0.939000000
C    -0.543000000     6.456000000    -0.363000000
C    -1.774000000     5.805000000    -0.534000000
H    -2.178000000     5.344000000     0.363000000
C     0.114000000     7.035000000    -1.390000000
H     1.095000000     7.466000000    -1.208000000
C    -0.371000000     6.981000000    -2.712000000
H     0.137000000     7.288000000    -3.622000000
C    -1.608000000     6.367000000    -2.891000000
H    -2.109000000     6.298000000    -3.853000000
C    -2.362000000     5.831000000    -1.821000000
O    -3.527000000     5.188000000    -2.039000000
C    -3.488000000     3.916000000    -2.622000000
C    -4.765000000     3.446000000    -2.889000000
H    -5.591000000     4.038000000    -2.503000000
C    -4.886000000     2.284000000    -3.586000000
O    -6.092000000     1.737000000    -3.708000000
C    -6.447000000     0.557000000    -3.171000000
C    -6.126000000     0.313000000    -1.840000000
H    -5.598000000     1.034000000    -1.220000000
C    -7.085000000    -0.404000000    -3.961000000
H    -7.301000000    -0.203000000    -5.008000000
C    -7.385000000    -1.618000000    -3.470000000
H    -7.917000000    -2.308000000    -4.119000000
C    -7.075000000    -1.858000000    -2.113000000
H    -7.452000000    -2.815000000    -1.762000000
C    -6.461000000    -0.940000000    -1.321000000
O    -6.134000000    -1.389000000    -0.013000000
C    -5.118000000    -2.219000000     0.280000000
C    -5.162000000    -2.877000000     1.499000000
H    -5.919000000    -2.649000000     2.244000000
C    -4.140000000    -3.705000000     1.864000000
O    -4.103000000    -4.073000000     3.178000000
C    -3.067000000    -4.544000000     3.935000000
C    -2.334000000    -3.659000000     4.727000000
H    -2.621000000    -2.611000000     4.686000000
C    -2.756000000    -5.916000000     3.859000000
H    -3.267000000    -6.644000000     3.234000000
C    -1.867000000    -6.368000000     4.852000000
H    -1.721000000    -7.435000000     4.999000000
C    -1.120000000    -5.492000000     5.650000000
H    -0.287000000    -5.788000000     6.282000000
C    -1.333000000    -4.175000000     5.553000000
O    -0.504000000    -3.397000000     6.252000000
C     0.323000000    -2.505000000     5.609000000
C     0.329000000    -1.180000000     6.006000000
H    -0.244000000    -0.876000000     6.878000000
C     1.186000000    -0.225000000     5.359000000
O     1.191000000     1.102000000     5.823000000
C     2.233000000     1.952000000     5.882000000
C     3.316000000     1.847000000     6.793000000
H     3.395000000     1.055000000     7.533000000
C     4.248000000     2.838000000     6.879000000
H     5.113000000     2.878000000     7.536000000
C     4.309000000     3.892000000     5.946000000
H     5.084000000     4.653000000     5.979000000
C     3.234000000     4.043000000     5.079000000
C     2.215000000     3.072000000     5.052000000
H     1.398000000     3.199000000     4.347000000
C    -2.395000000    -0.387000000     2.259000000
H    -2.732000000    -0.660000000     3.256000000
C    -1.177000000    -0.893000000     1.792000000
H    -0.731000000    -1.691000000     2.381000000
C    -0.652000000    -0.471000000     0.612000000
H     0.224000000    -1.031000000     0.139000000
C    -1.350000000     0.557000000    -0.096000000
H    -0.979000000     0.965000000    -1.033000000
C    -2.490000000     1.136000000     0.374000000
H    -2.903000000     1.932000000    -0.241000000
C    -3.066000000     0.701000000     1.591000000
C    -4.305000000     1.396000000     2.187000000
O    -4.814000000     2.214000000     1.474000000
O    -4.858000000     1.056000000     3.194000000
O    -5.006000000    -1.271000000     5.195000000
H    -5.655000000    -1.883000000     4.849000000
H    -4.793000000    -0.704000000     4.454000000
O    -9.156000000     0.663000000    -0.272000000
H    -8.487000000     1.141000000     0.218000000
H    -8.692000000    -0.092000000    -0.635000000
O    -6.608000000    -1.571000000     7.668000000
H    -6.012000000    -1.658000000     6.924000000
H    -6.917000000    -0.666000000     7.623000000
O    -3.027000000    -0.656000000     7.184000000
H    -3.343000000    -0.912000000     6.317000000
H    -3.144000000     0.294000000     7.211000000
O    -7.023000000    -2.853000000     4.557000000
H    -7.590000000    -2.905000000     5.326000000
H    -7.414000000    -2.166000000     4.017000000
O    -5.658000000     6.140000000     5.932000000
H    -5.803000000     5.630000000     6.729000000
H    -6.469000000     6.634000000     5.813000000
O    -3.865000000     2.352000000     8.186000000
H    -3.368000000     3.103000000     8.510000000
H    -3.716000000     2.357000000     7.240000000
O    -7.337000000    -0.270000000     3.293000000
H    -6.564000000     0.259000000     3.489000000
H    -7.481000000    -0.145000000     2.355000000
O    -9.778000000     0.465000000     4.265000000
H   -10.160000000     0.299000000     3.403000000
H    -8.834000000     0.400000000     4.126000000
O    -6.221000000     4.390000000     0.724000000
H    -5.689000000     4.967000000     1.272000000
H    -5.739000000     3.564000000     0.706000000
O    -7.462000000     2.069000000     0.994000000
H    -6.576000000     1.891000000     1.309000000
H    -7.537000000     3.023000000     1.016000000
O    -2.094000000     4.202000000     4.853000000
H    -2.987000000     4.116000000     4.518000000
H    -1.840000000     5.097000000     4.629000000
O    -8.741000000     3.993000000     3.020000000
H    -8.845000000     4.447000000     3.857000000
H    -8.109000000     3.297000000     3.202000000
O    -8.612000000     5.393000000     0.874000000
H    -7.691000000     5.327000000     0.621000000
H    -8.708000000     4.769000000     1.594000000
O    -3.368000000     1.792000000     5.397000000
H    -3.787000000     1.466000000     4.600000000
H    -2.728000000     2.432000000     5.088000000
O    -4.653000000     4.830000000     3.812000000
H    -4.279000000     5.463000000     3.198000000
H    -4.902000000     5.354000000     4.573000000
O    -7.999000000     2.998000000     6.679000000
H    -7.481000000     2.921000000     5.877000000
H    -7.421000000     3.449000000     7.295000000
O    -3.882000000     7.120000000     2.133000000
H    -4.451000000     7.264000000     1.377000000
H    -3.096000000     7.632000000     1.943000000
O    -6.673000000     2.833000000     4.144000000
H    -6.159000000     2.043000000     3.978000000
H    -6.032000000     3.544000000     4.123000000
