215
-1453.82671
C     0.608000000    -0.538000000    -4.578000000
H     0.432000000    -1.457000000    -4.023000000
C     1.716000000     0.259000000    -4.217000000
C     1.834000000     1.480000000    -4.851000000
H     2.739000000     2.071000000    -4.732000000
C     2.696000000    -0.282000000    -3.206000000
O     2.913000000    -1.679000000    -3.486000000
H     2.143000000    -0.296000000    -2.255000000
O     3.957000000     0.405000000    -3.172000000
C     4.369000000     0.732000000    -1.931000000
C     3.968000000     1.997000000    -1.369000000
H     3.468000000     2.753000000    -1.969000000
C     4.017000000     2.203000000    -0.017000000
O     3.539000000     3.396000000     0.458000000
C     4.631000000     1.322000000     0.817000000
C     4.875000000     1.638000000     2.267000000
H     5.716000000     1.059000000     2.656000000
C     3.627000000     1.447000000     3.128000000
C     3.504000000     0.152000000     3.701000000
H     4.315000000    -0.567000000     3.616000000
H     5.309000000     2.640000000     2.292000000
C     5.102000000     0.105000000     0.277000000
H     5.632000000    -0.581000000     0.932000000
C     4.892000000    -0.217000000    -1.086000000
C     5.170000000    -1.589000000    -1.591000000
H     6.012000000    -2.108000000    -1.126000000
H     5.501000000    -1.615000000    -2.631000000
C     3.932000000    -2.485000000    -1.433000000
C     3.740000000    -3.245000000    -0.271000000
H     4.274000000    -3.021000000     0.649000000
C     2.937000000    -2.528000000    -2.422000000
C     1.906000000    -3.500000000    -2.300000000
H     1.064000000    -3.463000000    -2.986000000
C     1.917000000    -4.340000000    -1.232000000
O     0.768000000    -5.087000000    -1.134000000
C    -0.305000000    -4.620000000    -0.309000000
C    -1.747000000    -4.817000000    -0.950000000
C    -2.880000000    -4.743000000    -0.157000000
H    -2.821000000    -4.651000000     0.924000000
C    -1.845000000    -4.931000000    -2.330000000
H    -0.944000000    -4.937000000    -2.938000000
O    -0.137000000    -5.225000000     1.021000000
H    -0.301000000    -3.524000000    -0.222000000
C     2.793000000    -4.270000000    -0.176000000
C     2.663000000    -5.114000000     1.094000000
H     3.686000000    -5.271000000     1.441000000
H     2.144000000    -6.015000000     0.761000000
C     1.804000000    -4.245000000     1.981000000
C     2.404000000    -3.394000000     2.892000000
H     3.482000000    -3.446000000     3.025000000
C     0.428000000    -4.406000000     1.949000000
C    -0.362000000    -3.547000000     2.714000000
H    -1.433000000    -3.573000000     2.531000000
C     0.205000000    -2.626000000     3.589000000
O    -0.750000000    -1.839000000     4.241000000
C    -0.844000000    -0.401000000     3.955000000
C    -2.131000000     0.204000000     3.793000000
C    -3.100000000    -0.420000000     3.038000000
H    -2.779000000    -1.312000000     2.507000000
C    -2.366000000     1.528000000     4.229000000
H    -1.617000000     1.963000000     4.886000000
O     0.117000000     0.206000000     4.914000000
H    -0.438000000    -0.130000000     2.969000000
C     1.593000000    -2.654000000     3.781000000
C     2.231000000    -1.708000000     4.826000000
H     3.247000000    -2.061000000     5.017000000
H     1.654000000    -1.665000000     5.752000000
C     2.353000000    -0.267000000     4.342000000
C     1.365000000     0.641000000     4.429000000
C     1.397000000     1.898000000     3.830000000
H     0.569000000     2.601000000     3.813000000
C     2.530000000     2.312000000     3.210000000
O     2.464000000     3.479000000     2.508000000
C     2.187000000     3.374000000     1.091000000
H     1.734000000     2.402000000     0.846000000
C     1.172000000     4.460000000     0.746000000
C     0.674000000     4.529000000    -0.609000000
H     1.090000000     3.894000000    -1.386000000
C     0.436000000     5.132000000     1.747000000
H     0.648000000     5.059000000     2.810000000
C    -0.611000000     5.954000000     1.391000000
O    -1.280000000     6.694000000     2.298000000
C    -0.980000000     6.085000000     0.030000000
H    -1.832000000     6.694000000    -0.259000000
C    -0.359000000     5.339000000    -0.914000000
O    -0.765000000     5.452000000    -2.233000000
C     0.134000000     5.463000000    -3.321000000
C     0.005000000     4.421000000    -4.259000000
H    -0.807000000     3.710000000    -4.127000000
C     1.108000000     6.482000000    -3.491000000
H     1.149000000     7.332000000    -2.815000000
C     1.952000000     6.494000000    -4.525000000
H     2.564000000     7.382000000    -4.659000000
C     1.929000000     5.436000000    -5.396000000
H     2.604000000     5.422000000    -6.248000000
C     0.947000000     4.408000000    -5.305000000
O     0.991000000     3.301000000    -6.171000000
C     0.887000000     2.012000000    -5.730000000
C    -0.217000000     1.259000000    -6.048000000
H    -1.128000000     1.602000000    -6.533000000
C    -0.343000000    -0.007000000    -5.470000000
O    -1.505000000    -0.689000000    -5.592000000
C    -1.617000000    -2.040000000    -5.712000000
C    -2.353000000    -2.817000000    -4.855000000
H    -2.970000000    -2.390000000    -4.069000000
C    -1.081000000    -2.616000000    -6.880000000
H    -0.584000000    -2.001000000    -7.626000000
C    -1.197000000    -4.004000000    -7.119000000
H    -0.712000000    -4.493000000    -7.959000000
C    -1.936000000    -4.802000000    -6.288000000
H    -2.252000000    -5.813000000    -6.530000000
C    -2.566000000    -4.200000000    -5.169000000
O    -3.311000000    -4.958000000    -4.274000000
C    -3.105000000    -4.978000000    -2.915000000
C    -4.221000000    -4.983000000    -2.124000000
H    -5.256000000    -5.060000000    -2.449000000
C    -4.135000000    -4.791000000    -0.747000000
O    -5.284000000    -4.817000000     0.000000000
C    -5.498000000    -3.995000000     1.098000000
C    -5.364000000    -2.611000000     0.955000000
H    -5.029000000    -2.228000000    -0.005000000
C    -5.761000000    -4.521000000     2.403000000
H    -5.834000000    -5.604000000     2.470000000
C    -6.023000000    -3.676000000     3.542000000
H    -6.532000000    -4.094000000     4.407000000
C    -5.913000000    -2.282000000     3.324000000
H    -6.032000000    -1.587000000     4.151000000
C    -5.591000000    -1.749000000     2.067000000
O    -5.333000000    -0.449000000     1.935000000
C    -4.350000000     0.222000000     2.691000000
C    -4.656000000     1.461000000     3.256000000
H    -5.648000000     1.891000000     3.143000000
C    -3.623000000     2.140000000     3.979000000
O    -3.907000000     3.377000000     4.504000000
C    -3.015000000     4.416000000     4.612000000
C    -2.536000000     4.807000000     5.877000000
H    -2.876000000     4.227000000     6.731000000
C    -1.597000000     5.822000000     5.947000000
H    -1.102000000     6.067000000     6.883000000
C    -1.179000000     6.498000000     4.797000000
H    -0.468000000     7.303000000     4.963000000
C    -1.710000000     6.136000000     3.502000000
C    -2.721000000     5.144000000     3.482000000
H    -3.110000000     4.884000000     2.500000000
C    -1.837000000     1.314000000     0.340000000
H    -2.379000000     2.107000000     0.849000000
C    -0.607000000     0.979000000     0.827000000
H    -0.158000000     1.544000000     1.639000000
C     0.170000000     0.010000000     0.249000000
H     1.124000000    -0.295000000     0.718000000
C    -0.303000000    -0.578000000    -0.914000000
H     0.358000000    -1.242000000    -1.466000000
C    -1.527000000    -0.204000000    -1.518000000
H    -1.830000000    -0.748000000    -2.409000000
C    -2.354000000     0.657000000    -0.839000000
C    -3.665000000     1.083000000    -1.270000000
O    -4.017000000     0.640000000    -2.361000000
O    -4.407000000     1.790000000    -0.644000000
O    -4.024000000     4.777000000    -3.229000000
H    -3.728000000     5.685000000    -3.297000000
H    -3.705000000     4.361000000    -4.030000000
O    -3.697000000     1.450000000    -4.974000000
H    -3.764000000     1.117000000    -4.079000000
H    -3.715000000     0.667000000    -5.523000000
O    -9.104000000    -0.559000000    -0.070000000
H    -8.199000000    -0.248000000    -0.066000000
H    -9.308000000    -0.693000000    -0.995000000
O    -9.337000000     2.481000000    -0.371000000
H    -8.553000000     2.030000000    -0.057000000
H   -10.057000000     2.074000000     0.111000000
O    -8.992000000     2.495000000    -3.268000000
H    -8.116000000     2.819000000    -3.480000000
H    -9.070000000     2.620000000    -2.322000000
O    -3.346000000     7.276000000    -3.432000000
H    -3.543000000     7.862000000    -4.162000000
H    -3.008000000     7.853000000    -2.747000000
O    -5.949000000     1.789000000    -3.463000000
H    -5.421000000     2.001000000    -4.233000000
H    -5.317000000     1.465000000    -2.821000000
O    -8.486000000    -3.832000000     0.283000000
H    -8.194000000    -4.178000000    -0.560000000
H    -8.375000000    -2.885000000     0.205000000
O    -6.065000000    -1.211000000    -2.026000000
H    -6.152000000    -1.022000000    -2.960000000
H    -5.335000000    -0.664000000    -1.737000000
O    -8.003000000     0.383000000    -4.516000000
H    -8.721000000     0.629000000    -3.933000000
H    -7.354000000     1.077000000    -4.404000000
O    -2.709000000     3.703000000    -5.941000000
H    -3.345000000     3.700000000    -6.656000000
H    -2.723000000     2.807000000    -5.604000000
O    -6.852000000     4.552000000    -3.794000000
H    -6.026000000     4.600000000    -3.314000000
H    -6.592000000     4.411000000    -4.705000000
O    -8.277000000     4.965000000    -0.668000000
H    -7.359000000     4.756000000    -0.495000000
H    -8.755000000     4.181000000    -0.399000000
O    -4.276000000     4.273000000    -0.353000000
H    -3.776000000     4.482000000    -1.142000000
H    -4.390000000     3.324000000    -0.386000000
O    -5.350000000     6.370000000     1.019000000
H    -4.934000000     5.582000000     0.671000000
H    -5.789000000     6.076000000     1.818000000
O    -4.441000000    -0.600000000    -6.699000000
H    -3.995000000    -1.447000000    -6.684000000
H    -5.367000000    -0.815000000    -6.592000000
O    -5.963000000     7.323000000    -1.296000000
H    -5.272000000     6.911000000    -1.813000000
H    -5.895000000     6.913000000    -0.434000000
O    -7.068000000     1.257000000    -0.278000000
H    -6.871000000     1.670000000    -1.118000000
H    -6.210000000     1.074000000     0.106000000
O    -7.564000000    -3.410000000    -2.386000000
H    -6.776000000    -2.874000000    -2.296000000
H    -8.209000000    -2.824000000    -2.782000000
