215
-1454.96785
C     1.573000000    -1.602000000    -5.127000000
H     1.473000000    -2.653000000    -4.869000000
C     2.409000000    -0.729000000    -4.457000000
C     2.677000000     0.525000000    -4.982000000
H     3.329000000     1.173000000    -4.402000000
C     3.020000000    -1.270000000    -3.180000000
O     3.209000000    -2.683000000    -3.129000000
H     2.265000000    -0.997000000    -2.427000000
O     4.332000000    -0.646000000    -2.850000000
C     4.541000000    -0.271000000    -1.540000000
C     4.299000000     1.047000000    -1.217000000
H     4.037000000     1.768000000    -1.987000000
C     4.428000000     1.486000000     0.110000000
O     4.055000000     2.811000000     0.350000000
C     4.865000000     0.526000000     1.090000000
C     4.866000000     0.935000000     2.563000000
H     5.540000000     0.329000000     3.172000000
C     3.451000000     0.887000000     3.168000000
C     3.120000000    -0.256000000     3.951000000
H     3.818000000    -1.089000000     3.984000000
H     5.132000000     1.957000000     2.839000000
C     5.018000000    -0.826000000     0.764000000
H     5.257000000    -1.611000000     1.477000000
C     4.823000000    -1.249000000    -0.546000000
C     4.977000000    -2.735000000    -0.891000000
H     5.630000000    -3.233000000    -0.172000000
H     5.459000000    -2.816000000    -1.867000000
C     3.620000000    -3.468000000    -0.902000000
C     3.208000000    -4.093000000     0.295000000
H     3.874000000    -4.126000000     1.153000000
C     2.808000000    -3.469000000    -2.083000000
C     1.497000000    -3.954000000    -1.993000000
H     0.841000000    -3.885000000    -2.858000000
C     1.094000000    -4.438000000    -0.734000000
O    -0.311000000    -4.668000000    -0.758000000
C    -1.137000000    -3.763000000    -0.101000000
C    -2.430000000    -3.403000000    -0.788000000
C    -3.607000000    -3.055000000    -0.063000000
H    -3.625000000    -3.181000000     1.017000000
C    -2.476000000    -3.308000000    -2.218000000
H    -1.590000000    -3.568000000    -2.791000000
O    -1.402000000    -4.254000000     1.231000000
H    -0.543000000    -2.837000000    -0.107000000
C     1.896000000    -4.501000000     0.430000000
C     1.495000000    -5.036000000     1.807000000
H     2.407000000    -5.336000000     2.326000000
H     0.885000000    -5.912000000     1.579000000
C     0.601000000    -4.043000000     2.560000000
C     1.259000000    -3.467000000     3.625000000
H     2.292000000    -3.718000000     3.851000000
C    -0.689000000    -3.637000000     2.238000000
C    -1.366000000    -2.654000000     2.963000000
H    -2.424000000    -2.429000000     2.850000000
C    -0.705000000    -2.099000000     4.099000000
O    -1.368000000    -1.040000000     4.771000000
C    -1.199000000     0.284000000     4.342000000
C    -2.500000000     1.106000000     4.417000000
C    -3.658000000     0.549000000     3.959000000
H    -3.603000000    -0.526000000     3.813000000
C    -2.573000000     2.451000000     4.779000000
H    -1.646000000     3.010000000     4.880000000
O    -0.127000000     0.841000000     5.107000000
H    -0.828000000     0.198000000     3.310000000
C     0.645000000    -2.405000000     4.301000000
C     1.471000000    -1.628000000     5.298000000
H     2.339000000    -2.192000000     5.648000000
H     0.930000000    -1.326000000     6.196000000
C     1.908000000    -0.325000000     4.621000000
C     1.106000000     0.831000000     4.547000000
C     1.360000000     1.946000000     3.718000000
H     0.563000000     2.664000000     3.543000000
C     2.550000000     1.944000000     2.998000000
O     2.751000000     3.054000000     2.204000000
C     2.712000000     2.909000000     0.812000000
H     2.176000000     2.006000000     0.485000000
C     1.798000000     3.978000000     0.186000000
C     1.850000000     4.185000000    -1.173000000
H     2.680000000     3.867000000    -1.799000000
C     0.691000000     4.485000000     0.893000000
H     0.705000000     4.383000000     1.975000000
C    -0.297000000     5.211000000     0.295000000
O    -1.341000000     5.801000000     0.980000000
C    -0.229000000     5.400000000    -1.096000000
H    -1.050000000     5.898000000    -1.605000000
C     0.852000000     4.971000000    -1.858000000
O     0.715000000     5.197000000    -3.210000000
C     1.662000000     4.817000000    -4.127000000
C     1.452000000     3.657000000    -4.824000000
H     0.590000000     3.011000000    -4.683000000
C     2.810000000     5.520000000    -4.350000000
H     3.058000000     6.358000000    -3.703000000
C     3.782000000     5.107000000    -5.282000000
H     4.712000000     5.662000000    -5.378000000
C     3.550000000     3.947000000    -6.025000000
H     4.217000000     3.693000000    -6.845000000
C     2.395000000     3.237000000    -5.827000000
O     2.113000000     2.190000000    -6.681000000
C     1.967000000     0.957000000    -6.143000000
C     1.086000000     0.110000000    -6.810000000
H     0.547000000     0.383000000    -7.713000000
C     0.957000000    -1.213000000    -6.332000000
O     0.175000000    -2.103000000    -7.040000000
C    -0.753000000    -2.958000000    -6.443000000
C    -1.673000000    -2.472000000    -5.515000000
H    -1.581000000    -1.439000000    -5.190000000
C    -0.929000000    -4.210000000    -7.005000000
H    -0.165000000    -4.439000000    -7.744000000
C    -1.925000000    -5.104000000    -6.580000000
H    -1.933000000    -6.160000000    -6.837000000
C    -2.822000000    -4.561000000    -5.641000000
H    -3.573000000    -5.288000000    -5.342000000
C    -2.802000000    -3.282000000    -5.170000000
O    -3.667000000    -2.765000000    -4.289000000
C    -3.562000000    -2.871000000    -2.915000000
C    -4.726000000    -2.654000000    -2.181000000
H    -5.581000000    -2.341000000    -2.775000000
C    -4.779000000    -2.680000000    -0.749000000
O    -5.997000000    -2.445000000    -0.066000000
C    -6.099000000    -2.230000000     1.286000000
C    -5.931000000    -0.890000000     1.775000000
H    -5.658000000    -0.098000000     1.082000000
C    -6.522000000    -3.242000000     2.182000000
H    -6.572000000    -4.280000000     1.862000000
C    -6.800000000    -2.891000000     3.505000000
H    -7.192000000    -3.635000000     4.194000000
C    -6.678000000    -1.576000000     3.957000000
H    -6.950000000    -1.368000000     4.988000000
C    -6.184000000    -0.660000000     3.131000000
O    -6.087000000     0.660000000     3.637000000
C    -4.872000000     1.244000000     3.981000000
C    -4.948000000     2.519000000     4.367000000
H    -5.934000000     2.978000000     4.357000000
C    -3.812000000     3.158000000     4.788000000
O    -3.819000000     4.492000000     4.896000000
C    -2.826000000     5.254000000     4.297000000
C    -1.981000000     6.037000000     5.058000000
H    -2.005000000     5.924000000     6.139000000
C    -1.143000000     6.958000000     4.510000000
H    -0.693000000     7.744000000     5.112000000
C    -0.870000000     6.867000000     3.114000000
H    -0.104000000     7.456000000     2.616000000
C    -1.472000000     5.880000000     2.374000000
C    -2.632000000     5.214000000     2.929000000
H    -3.260000000     4.625000000     2.264000000
C    -2.130000000     1.239000000     0.057000000
H    -2.877000000     1.966000000     0.365000000
C    -1.007000000     0.995000000     0.929000000
H    -0.851000000     1.459000000     1.899000000
C     0.032000000     0.162000000     0.520000000
H     0.801000000     0.141000000     1.267000000
C     0.016000000    -0.401000000    -0.733000000
H     0.774000000    -1.109000000    -1.060000000
C    -0.991000000    -0.156000000    -1.659000000
H    -1.019000000    -0.661000000    -2.621000000
C    -2.135000000     0.674000000    -1.278000000
C    -3.123000000     1.033000000    -2.386000000
O    -2.818000000     0.889000000    -3.541000000
O    -4.118000000     1.681000000    -2.079000000
O    -4.033000000     6.588000000    -1.408000000
H    -4.801000000     7.103000000    -1.654000000
H    -4.377000000     5.712000000    -1.235000000
O    -6.857000000     1.121000000    -7.130000000
H    -6.631000000     0.751000000    -7.983000000
H    -6.440000000     0.537000000    -6.497000000
O    -2.100000000     1.169000000    -6.198000000
H    -2.324000000     1.070000000    -5.273000000
H    -2.031000000     2.115000000    -6.328000000
O    -7.979000000     2.278000000    -3.816000000
H    -7.497000000     1.701000000    -3.224000000
H    -7.308000000     2.652000000    -4.386000000
O    -3.460000000     1.454000000    -8.498000000
H    -3.329000000     0.527000000    -8.698000000
H    -3.106000000     1.562000000    -7.616000000
O    -6.038000000     5.066000000     1.781000000
H    -6.285000000     4.182000000     2.051000000
H    -5.915000000     5.001000000     0.834000000
O    -1.939000000     3.926000000    -6.289000000
H    -2.664000000     4.541000000    -6.398000000
H    -1.833000000     3.846000000    -5.342000000
O    -8.313000000     0.716000000     0.590000000
H    -8.431000000     0.726000000    -0.360000000
H    -9.111000000     1.117000000     0.935000000
O    -4.232000000     5.652000000    -6.772000000
H    -4.632000000     5.595000000    -5.905000000
H    -4.893000000     5.294000000    -7.365000000
O    -6.643000000     0.709000000    -1.999000000
H    -5.830000000     1.172000000    -1.798000000
H    -6.520000000    -0.163000000    -1.623000000
O    -6.087000000     2.197000000     1.333000000
H    -6.937000000     1.942000000     0.974000000
H    -5.952000000     1.605000000     2.074000000
O    -7.746000000     5.280000000    -2.644000000
H    -8.440000000     5.767000000    -2.200000000
H    -7.885000000     4.371000000    -2.381000000
O    -5.686000000    -0.492000000    -5.310000000
H    -4.839000000    -0.710000000    -4.921000000
H    -6.058000000    -1.338000000    -5.561000000
O    -5.284000000     2.665000000    -4.445000000
H    -4.737000000     2.424000000    -3.697000000
H    -5.022000000     2.059000000    -5.138000000
O    -1.931000000     3.367000000    -3.763000000
H    -2.191000000     2.479000000    -3.516000000
H    -1.933000000     3.855000000    -2.939000000
O    -5.665000000     5.233000000    -4.406000000
H    -6.098000000     5.408000000    -3.571000000
H    -5.388000000     4.318000000    -4.345000000
O    -4.954000000     4.022000000    -0.862000000
H    -5.777000000     3.733000000    -0.469000000
H    -4.624000000     3.250000000    -1.322000000
O    -6.105000000    -4.440000000    -4.008000000
H    -5.445000000    -4.850000000    -3.449000000
H    -5.618000000    -3.793000000    -4.518000000
O    -2.914000000    -1.288000000    -8.424000000
H    -2.217000000    -1.313000000    -9.080000000
H    -2.466000000    -1.072000000    -7.607000000
