215
-1449.78101
C    -4.121000000     1.495000000    -3.133000000
H    -4.267000000     0.488000000    -3.516000000
C    -2.805000000     1.996000000    -2.980000000
C    -2.646000000     3.250000000    -2.362000000
H    -1.666000000     3.691000000    -2.194000000
C    -1.627000000     1.242000000    -3.562000000
O    -2.033000000     0.264000000    -4.535000000
H    -1.177000000     0.822000000    -2.651000000
O    -0.691000000     2.188000000    -4.179000000
C     0.681000000     2.063000000    -4.014000000
C     1.335000000     2.976000000    -3.324000000
H     0.819000000     3.860000000    -2.955000000
C     2.630000000     2.726000000    -2.798000000
O     3.016000000     3.550000000    -1.757000000
C     3.334000000     1.563000000    -3.206000000
C     4.686000000     1.228000000    -2.687000000
H     5.079000000     0.569000000    -3.465000000
C     4.714000000     0.466000000    -1.380000000
C     4.893000000    -0.902000000    -1.402000000
H     5.079000000    -1.264000000    -2.410000000
H     5.258000000     2.150000000    -2.571000000
C     2.753000000     0.726000000    -4.140000000
H     3.191000000    -0.199000000    -4.504000000
C     1.373000000     0.976000000    -4.602000000
C     0.769000000    -0.072000000    -5.505000000
H     1.509000000    -0.680000000    -6.028000000
H     0.197000000     0.429000000    -6.289000000
C    -0.054000000    -1.140000000    -4.779000000
C     0.579000000    -2.322000000    -4.389000000
H     1.648000000    -2.492000000    -4.491000000
C    -1.405000000    -0.951000000    -4.444000000
C    -2.146000000    -2.014000000    -3.912000000
H    -3.209000000    -1.871000000    -3.733000000
C    -1.474000000    -3.167000000    -3.431000000
O    -2.082000000    -3.916000000    -2.438000000
C    -1.712000000    -3.612000000    -1.053000000
C    -2.933000000    -3.546000000    -0.143000000
C    -2.813000000    -4.015000000     1.156000000
H    -1.906000000    -4.534000000     1.456000000
C    -4.156000000    -2.984000000    -0.626000000
H    -4.383000000    -2.666000000    -1.640000000
O    -0.796000000    -4.648000000    -0.639000000
H    -1.167000000    -2.664000000    -0.934000000
C    -0.082000000    -3.288000000    -3.641000000
C     0.656000000    -4.537000000    -3.177000000
H     1.445000000    -4.821000000    -3.877000000
H    -0.126000000    -5.295000000    -3.098000000
C     1.326000000    -4.299000000    -1.794000000
C     2.700000000    -3.900000000    -1.652000000
H     3.276000000    -3.658000000    -2.542000000
C     0.562000000    -4.382000000    -0.631000000
C     1.168000000    -4.238000000     0.599000000
H     0.530000000    -4.332000000     1.474000000
C     2.494000000    -3.921000000     0.734000000
O     3.004000000    -3.660000000     2.012000000
C     2.991000000    -2.262000000     2.308000000
C     2.416000000    -1.979000000     3.725000000
C     1.511000000    -2.831000000     4.345000000
H     1.463000000    -3.832000000     3.923000000
C     2.508000000    -0.677000000     4.294000000
H     3.118000000     0.021000000     3.726000000
O     4.251000000    -1.720000000     2.041000000
H     2.322000000    -1.766000000     1.589000000
C     3.258000000    -3.622000000    -0.434000000
C     4.699000000    -3.174000000    -0.374000000
H     5.137000000    -3.510000000    -1.316000000
H     5.324000000    -3.704000000     0.348000000
C     4.682000000    -1.650000000    -0.306000000
C     4.397000000    -0.966000000     0.911000000
C     4.380000000     0.436000000     0.997000000
H     4.353000000     0.983000000     1.936000000
C     4.541000000     1.134000000    -0.166000000
O     4.317000000     2.468000000    -0.175000000
C     3.015000000     3.014000000    -0.416000000
H     2.224000000     2.251000000    -0.372000000
C     2.726000000     4.098000000     0.573000000
C     1.621000000     4.822000000     0.201000000
H     1.133000000     4.683000000    -0.761000000
C     3.333000000     4.158000000     1.825000000
H     4.216000000     3.592000000     2.111000000
C     2.823000000     5.046000000     2.742000000
O     3.477000000     5.148000000     3.955000000
C     1.849000000     5.989000000     2.251000000
H     1.551000000     6.782000000     2.931000000
C     1.267000000     5.923000000     0.999000000
O     0.458000000     6.980000000     0.622000000
C    -0.484000000     6.821000000    -0.381000000
C    -1.587000000     6.116000000    -0.163000000
H    -1.766000000     5.677000000     0.815000000
C    -0.201000000     7.491000000    -1.567000000
H     0.732000000     8.031000000    -1.711000000
C    -1.070000000     7.304000000    -2.656000000
H    -0.792000000     7.771000000    -3.597000000
C    -2.264000000     6.562000000    -2.434000000
H    -2.915000000     6.544000000    -3.304000000
C    -2.487000000     5.950000000    -1.255000000
O    -3.569000000     5.151000000    -1.140000000
C    -3.721000000     3.937000000    -1.869000000
C    -4.974000000     3.408000000    -2.021000000
H    -5.877000000     3.866000000    -1.626000000
C    -5.182000000     2.169000000    -2.601000000
O    -6.414000000     1.646000000    -2.542000000
C    -6.754000000     0.328000000    -2.420000000
C    -6.418000000    -0.419000000    -1.285000000
H    -5.900000000     0.130000000    -0.503000000
C    -7.328000000    -0.260000000    -3.543000000
H    -7.642000000     0.299000000    -4.420000000
C    -7.556000000    -1.682000000    -3.492000000
H    -8.132000000    -2.213000000    -4.246000000
C    -7.287000000    -2.454000000    -2.354000000
H    -7.408000000    -3.525000000    -2.213000000
C    -6.661000000    -1.815000000    -1.289000000
O    -6.456000000    -2.421000000    -0.089000000
C    -5.176000000    -2.884000000     0.333000000
C    -4.990000000    -3.332000000     1.615000000
H    -5.853000000    -3.428000000     2.270000000
C    -3.837000000    -3.940000000     2.018000000
O    -3.766000000    -4.350000000     3.337000000
C    -2.634000000    -4.809000000     4.056000000
C    -1.851000000    -3.888000000     4.722000000
H    -2.169000000    -2.848000000     4.743000000
C    -2.209000000    -6.120000000     3.980000000
H    -2.753000000    -6.800000000     3.330000000
C    -1.077000000    -6.556000000     4.660000000
H    -0.686000000    -7.560000000     4.518000000
C    -0.346000000    -5.624000000     5.407000000
H     0.526000000    -5.980000000     5.950000000
C    -0.749000000    -4.277000000     5.481000000
O    -0.060000000    -3.321000000     6.146000000
C     0.796000000    -2.493000000     5.503000000
C     0.843000000    -1.126000000     5.916000000
H     0.138000000    -0.658000000     6.598000000
C     1.772000000    -0.235000000     5.374000000
O     1.707000000     1.078000000     5.752000000
C     2.700000000     2.024000000     5.764000000
C     3.724000000     1.957000000     6.693000000
H     3.875000000     1.050000000     7.272000000
C     4.699000000     2.945000000     6.685000000
H     5.540000000     2.934000000     7.374000000
C     4.485000000     4.087000000     5.893000000
H     5.117000000     4.949000000     6.094000000
C     3.534000000     4.071000000     4.876000000
C     2.547000000     3.113000000     4.926000000
H     1.635000000     3.080000000     4.335000000
C    -2.640000000    -0.491000000     2.445000000
H    -3.130000000    -0.915000000     3.318000000
C    -1.464000000    -1.076000000     1.994000000
H    -1.038000000    -1.944000000     2.491000000
C    -0.764000000    -0.509000000     0.943000000
H     0.089000000    -0.926000000     0.737000000
C    -1.293000000     0.568000000     0.309000000
H    -0.696000000     1.041000000    -0.467000000
C    -2.540000000     1.019000000     0.648000000
H    -2.972000000     1.775000000    -0.002000000
C    -3.258000000     0.472000000     1.706000000
C    -4.585000000     1.124000000     2.140000000
O    -5.132000000     2.022000000     1.494000000
O    -5.213000000     0.505000000     3.045000000
O    -5.354000000    -0.933000000     5.269000000
H    -6.311000000    -0.960000000     5.248000000
H    -5.108000000    -0.514000000     4.445000000
O    -3.192000000     0.046000000     7.176000000
H    -3.781000000    -0.260000000     6.487000000
H    -3.170000000     0.997000000     7.067000000
O    -8.379000000     4.549000000    -2.092000000
H    -8.704000000     3.787000000    -2.571000000
H    -8.066000000     4.193000000    -1.260000000
O    -8.052000000    -1.568000000     4.592000000
H    -8.459000000    -2.435000000     4.614000000
H    -8.042000000    -1.331000000     3.665000000
O    -5.699000000     5.823000000     5.523000000
H    -6.288000000     5.121000000     5.247000000
H    -6.268000000     6.449000000     5.971000000
O    -1.641000000     4.324000000     6.713000000
H    -2.093000000     5.036000000     7.167000000
H    -1.345000000     4.714000000     5.891000000
O    -6.025000000     4.247000000     8.232000000
H    -5.493000000     4.851000000     8.750000000
H    -5.431000000     3.526000000     8.022000000
O    -7.550000000    -0.537000000     1.969000000
H    -6.795000000    -0.097000000     2.358000000
H    -7.173000000    -1.136000000     1.325000000
O   -10.523000000    -0.942000000     1.573000000
H   -10.536000000    -1.535000000     0.821000000
H    -9.601000000    -0.704000000     1.675000000
O    -5.447000000     4.486000000     2.310000000
H    -4.654000000     5.021000000     2.330000000
H    -5.135000000     3.604000000     2.104000000
O    -7.657000000     2.670000000     0.930000000
H    -6.705000000     2.664000000     1.034000000
H    -7.883000000     1.760000000     0.740000000
O    -5.162000000    -3.827000000     6.156000000
H    -4.656000000    -3.017000000     6.092000000
H    -6.029000000    -3.545000000     6.449000000
O    -1.067000000     5.198000000     3.683000000
H    -2.002000000     5.213000000     3.480000000
H    -0.844000000     6.112000000     3.855000000
O    -8.077000000     5.247000000     1.735000000
H    -7.158000000     5.360000000     1.978000000
H    -8.139000000     4.335000000     1.452000000
O    -3.900000000     2.644000000     6.828000000
H    -3.044000000     2.955000000     6.534000000
H    -4.447000000     2.669000000     6.042000000
O    -3.587000000     6.218000000     3.561000000
H    -3.755000000     7.070000000     3.158000000
H    -4.239000000     6.149000000     4.258000000
O    -7.886000000     1.539000000     6.089000000
H    -7.254000000     1.081000000     5.536000000
H    -7.723000000     2.467000000     5.922000000
O    -7.819000000     4.216000000     6.165000000
H    -8.580000000     4.617000000     6.585000000
H    -7.076000000     4.495000000     6.699000000
O    -5.620000000     2.883000000     4.540000000
H    -5.474000000     2.055000000     4.083000000
H    -5.853000000     3.502000000     3.847000000
