215
-1476.02084
C     1.088000000    -0.184000000    -4.948000000
H     0.762000000    -1.199000000    -4.738000000
C     2.160000000     0.387000000    -4.278000000
C     2.405000000     1.726000000    -4.483000000
H     3.070000000     2.318000000    -3.859000000
C     2.898000000    -0.405000000    -3.204000000
O     3.186000000    -1.779000000    -3.579000000
H     2.222000000    -0.497000000    -2.342000000
O     4.153000000     0.180000000    -2.838000000
C     4.393000000     0.314000000    -1.495000000
C     4.188000000     1.544000000    -0.877000000
H     3.963000000     2.344000000    -1.578000000
C     4.334000000     1.696000000     0.486000000
O     3.893000000     2.875000000     1.029000000
C     4.698000000     0.572000000     1.282000000
C     4.625000000     0.744000000     2.795000000
H     5.207000000    -0.013000000     3.324000000
C     3.263000000     0.418000000     3.409000000
C     2.908000000    -0.854000000     3.714000000
H     3.428000000    -1.689000000     3.250000000
H     5.051000000     1.709000000     3.076000000
C     4.954000000    -0.638000000     0.666000000
H     5.179000000    -1.432000000     1.374000000
C     4.828000000    -0.786000000    -0.703000000
C     5.047000000    -2.159000000    -1.376000000
H     5.790000000    -2.708000000    -0.793000000
H     5.413000000    -2.030000000    -2.397000000
C     3.740000000    -2.889000000    -1.534000000
C     3.325000000    -3.773000000    -0.562000000
H     4.063000000    -3.954000000     0.215000000
C     2.819000000    -2.720000000    -2.656000000
C     1.627000000    -3.448000000    -2.671000000
H     0.988000000    -3.204000000    -3.515000000
C     1.175000000    -4.135000000    -1.564000000
O    -0.138000000    -4.605000000    -1.620000000
C    -1.143000000    -3.882000000    -0.814000000
C    -2.441000000    -3.592000000    -1.641000000
C    -3.641000000    -3.317000000    -0.942000000
H    -3.620000000    -3.288000000     0.145000000
C    -2.474000000    -3.476000000    -3.072000000
H    -1.550000000    -3.543000000    -3.641000000
O    -1.443000000    -4.603000000     0.386000000
H    -0.673000000    -2.966000000    -0.428000000
C     2.071000000    -4.376000000    -0.490000000
C     1.532000000    -5.233000000     0.633000000
H     2.471000000    -5.534000000     1.104000000
H     1.076000000    -6.128000000     0.205000000
C     0.652000000    -4.519000000     1.640000000
C     1.278000000    -3.951000000     2.785000000
H     2.360000000    -4.058000000     2.790000000
C    -0.718000000    -4.222000000     1.513000000
C    -1.421000000    -3.562000000     2.462000000
H    -2.483000000    -3.370000000     2.325000000
C    -0.762000000    -3.017000000     3.585000000
O    -1.428000000    -2.262000000     4.445000000
C    -1.328000000    -0.846000000     4.214000000
C    -2.661000000    -0.072000000     4.247000000
C    -3.770000000    -0.692000000     3.679000000
H    -3.673000000    -1.728000000     3.365000000
C    -2.694000000     1.323000000     4.502000000
H    -1.832000000     1.899000000     4.827000000
O    -0.412000000    -0.235000000     5.210000000
H    -0.822000000    -0.679000000     3.251000000
C     0.577000000    -3.282000000     3.771000000
C     1.276000000    -2.483000000     4.885000000
H     2.192000000    -3.016000000     5.150000000
H     0.664000000    -2.431000000     5.788000000
C     1.729000000    -1.085000000     4.434000000
C     0.867000000    -0.013000000     4.679000000
C     1.139000000     1.251000000     4.159000000
H     0.444000000     2.068000000     4.335000000
C     2.355000000     1.495000000     3.560000000
O     2.472000000     2.708000000     2.932000000
C     2.521000000     2.790000000     1.437000000
H     1.981000000     2.004000000     0.889000000
C     1.807000000     4.105000000     1.172000000
C     2.004000000     4.828000000     0.002000000
H     2.768000000     4.436000000    -0.665000000
C     0.742000000     4.507000000     1.978000000
H     0.475000000     3.880000000     2.825000000
C    -0.018000000     5.597000000     1.628000000
O    -0.975000000     6.097000000     2.404000000
C     0.261000000     6.343000000     0.536000000
H    -0.373000000     7.204000000     0.341000000
C     1.276000000     5.963000000    -0.303000000
O     1.467000000     6.484000000    -1.610000000
C     2.199000000     5.921000000    -2.620000000
C     1.667000000     5.073000000    -3.640000000
H     0.668000000     4.697000000    -3.436000000
C     3.562000000     6.217000000    -2.691000000
H     3.949000000     6.852000000    -1.899000000
C     4.377000000     5.722000000    -3.690000000
H     5.426000000     5.998000000    -3.612000000
C     3.796000000     4.891000000    -4.635000000
H     4.426000000     4.516000000    -5.438000000
C     2.454000000     4.629000000    -4.661000000
O     1.841000000     3.821000000    -5.652000000
C     1.731000000     2.497000000    -5.458000000
C     0.705000000     1.860000000    -6.162000000
H     0.240000000     2.330000000    -7.025000000
C     0.385000000     0.547000000    -5.962000000
O    -0.518000000    -0.021000000    -6.820000000
C    -1.004000000    -1.356000000    -6.697000000
C    -2.032000000    -1.684000000    -5.860000000
H    -2.528000000    -0.939000000    -5.243000000
C    -0.644000000    -2.300000000    -7.647000000
H     0.105000000    -1.970000000    -8.361000000
C    -1.222000000    -3.544000000    -7.816000000
H    -0.813000000    -4.191000000    -8.588000000
C    -2.230000000    -3.908000000    -6.881000000
H    -2.618000000    -4.923000000    -6.856000000
C    -2.628000000    -2.951000000    -5.927000000
O    -3.719000000    -3.222000000    -5.131000000
C    -3.636000000    -3.208000000    -3.790000000
C    -4.807000000    -2.896000000    -3.017000000
H    -5.753000000    -2.714000000    -3.522000000
C    -4.772000000    -3.008000000    -1.618000000
O    -5.926000000    -2.659000000    -0.950000000
C    -6.058000000    -2.746000000     0.415000000
C    -5.887000000    -1.603000000     1.222000000
H    -5.580000000    -0.676000000     0.746000000
C    -6.431000000    -4.044000000     0.944000000
H    -6.485000000    -4.959000000     0.359000000
C    -6.637000000    -4.070000000     2.340000000
H    -6.823000000    -5.040000000     2.795000000
C    -6.561000000    -2.909000000     3.098000000
H    -6.719000000    -2.908000000     4.174000000
C    -6.230000000    -1.693000000     2.581000000
O    -6.182000000    -0.628000000     3.448000000
C    -4.973000000     0.009000000     3.682000000
C    -5.055000000     1.324000000     4.129000000
H    -6.018000000     1.825000000     4.074000000
C    -3.909000000     2.038000000     4.487000000
O    -4.137000000     3.356000000     4.810000000
C    -3.009000000     4.184000000     4.778000000
C    -2.386000000     4.591000000     5.974000000
H    -2.730000000     4.112000000     6.887000000
C    -1.264000000     5.444000000     6.038000000
H    -0.762000000     5.591000000     6.991000000
C    -0.742000000     5.922000000     4.828000000
H     0.078000000     6.626000000     4.946000000
C    -1.386000000     5.554000000     3.622000000
C    -2.551000000     4.751000000     3.602000000
H    -3.093000000     4.601000000     2.672000000
C    -2.300000000    -0.178000000    -0.324000000
H    -3.262000000    -0.517000000     0.053000000
C    -1.115000000    -0.396000000     0.452000000
H    -1.178000000    -0.899000000     1.414000000
C     0.114000000     0.060000000     0.015000000
H     0.994000000    -0.246000000     0.582000000
C     0.241000000     0.715000000    -1.181000000
H     1.214000000     1.098000000    -1.480000000
C    -0.873000000     1.025000000    -1.953000000
H    -0.718000000     1.481000000    -2.928000000
C    -2.108000000     0.476000000    -1.542000000
C    -3.260000000     0.654000000    -2.476000000
O    -3.116000000     1.148000000    -3.556000000
O    -4.387000000     0.537000000    -1.985000000
O    -2.566000000     3.600000000     0.460000000
H    -1.759000000     3.460000000     0.956000000
H    -2.273000000     3.730000000    -0.442000000
O    -2.685000000     2.675000000    -5.627000000
H    -2.157000000     3.457000000    -5.463000000
H    -2.876000000     2.328000000    -4.756000000
O    -5.311000000     3.347000000    -6.680000000
H    -5.979000000     3.606000000    -6.045000000
H    -4.517000000     3.231000000    -6.158000000
O    -5.464000000     4.744000000     0.189000000
H    -5.802000000     3.855000000     0.085000000
H    -4.514000000     4.649000000     0.121000000
O    -7.497000000     3.581000000    -4.755000000
H    -7.400000000     3.404000000    -3.819000000
H    -8.415000000     3.832000000    -4.857000000
O    -8.905000000    -1.707000000    -1.300000000
H    -9.345000000    -1.114000000    -0.690000000
H    -8.113000000    -1.237000000    -1.561000000
O    -6.895000000    -0.259000000    -2.167000000
H    -5.974000000    -0.038000000    -2.308000000
H    -7.207000000    -0.546000000    -3.025000000
O    -2.178000000     4.777000000    -2.082000000
H    -2.190000000     5.731000000    -2.002000000
H    -1.655000000     4.609000000    -2.865000000
O    -5.097000000     0.518000000    -5.383000000
H    -4.389000000     0.482000000    -4.740000000
H    -5.884000000     0.298000000    -4.884000000
O    -7.741000000     1.714000000     1.598000000
H    -6.949000000     1.822000000     1.070000000
H    -7.974000000     2.604000000     1.863000000
O    -4.383000000     3.512000000    -3.209000000
H    -4.106000000     2.620000000    -3.415000000
H    -3.572000000     3.969000000    -2.985000000
O    -9.541000000     2.852000000    -1.277000000
H    -9.648000000     1.917000000    -1.452000000
H    -8.622000000     3.029000000    -1.473000000
O    -3.991000000     0.312000000    -8.372000000
H    -3.309000000     0.916000000    -8.079000000
H    -4.320000000    -0.087000000    -7.566000000
O    -2.266000000     2.495000000    -8.337000000
H    -2.531000000     2.623000000    -7.426000000
H    -1.655000000     3.211000000    -8.511000000
O    -6.513000000     5.816000000    -2.261000000
H    -6.510000000     5.222000000    -3.012000000
H    -5.965000000     5.381000000    -1.609000000
O    -1.481000000     5.141000000    -4.945000000
H    -2.253000000     5.706000000    -4.923000000
H    -0.830000000     5.645000000    -5.434000000
O    -7.626000000    -0.687000000    -4.713000000
H    -8.400000000    -0.131000000    -4.800000000
H    -7.837000000    -1.471000000    -5.220000000
O    -5.240000000     1.835000000     0.152000000
H    -4.355000000     1.998000000     0.479000000
H    -5.116000000     1.245000000    -0.591000000
O    -6.991000000     2.501000000    -2.344000000
H    -6.052000000     2.685000000    -2.378000000
H    -7.045000000     1.577000000    -2.101000000
