215
-1457.40966
C     0.681000000    -0.442000000    -5.259000000
H     0.623000000    -1.526000000    -5.198000000
C     1.632000000     0.237000000    -4.430000000
C     1.613000000     1.625000000    -4.430000000
H     2.179000000     2.231000000    -3.727000000
C     2.376000000    -0.559000000    -3.393000000
O     2.590000000    -1.956000000    -3.792000000
H     1.715000000    -0.578000000    -2.514000000
O     3.620000000     0.183000000    -3.166000000
C     4.129000000     0.301000000    -1.889000000
C     3.906000000     1.503000000    -1.228000000
H     3.491000000     2.456000000    -1.545000000
C     4.196000000     1.579000000     0.136000000
O     3.927000000     2.774000000     0.786000000
C     4.507000000     0.489000000     0.886000000
C     4.917000000     0.610000000     2.354000000
H     5.696000000    -0.131000000     2.543000000
C     3.725000000     0.531000000     3.222000000
C     3.410000000    -0.788000000     3.723000000
H     4.007000000    -1.632000000     3.388000000
H     5.462000000     1.551000000     2.462000000
C     4.596000000    -0.755000000     0.233000000
H     4.823000000    -1.633000000     0.832000000
C     4.405000000    -0.864000000    -1.166000000
C     4.626000000    -2.147000000    -1.809000000
H     5.471000000    -2.681000000    -1.370000000
H     4.930000000    -1.912000000    -2.831000000
C     3.422000000    -3.061000000    -1.782000000
C     3.163000000    -3.864000000    -0.635000000
H     3.839000000    -3.908000000     0.215000000
C     2.438000000    -2.905000000    -2.756000000
C     1.268000000    -3.662000000    -2.692000000
H     0.481000000    -3.531000000    -3.431000000
C     1.024000000    -4.504000000    -1.650000000
O    -0.245000000    -5.033000000    -1.480000000
C    -1.111000000    -4.184000000    -0.785000000
C    -2.405000000    -4.009000000    -1.558000000
C    -3.549000000    -3.790000000    -0.796000000
H    -3.471000000    -3.930000000     0.280000000
C    -2.465000000    -3.839000000    -2.941000000
H    -1.543000000    -3.905000000    -3.513000000
O    -1.309000000    -4.714000000     0.571000000
H    -0.638000000    -3.195000000    -0.698000000
C     1.939000000    -4.537000000    -0.590000000
C     1.600000000    -5.219000000     0.709000000
H     2.500000000    -5.613000000     1.185000000
H     0.932000000    -6.044000000     0.454000000
C     0.924000000    -4.236000000     1.634000000
C     1.689000000    -3.656000000     2.653000000
H     2.758000000    -3.831000000     2.749000000
C    -0.460000000    -4.175000000     1.579000000
C    -1.050000000    -3.334000000     2.463000000
H    -2.132000000    -3.237000000     2.432000000
C    -0.344000000    -2.787000000     3.491000000
O    -1.013000000    -1.980000000     4.367000000
C    -0.813000000    -0.480000000     4.085000000
C    -2.084000000     0.290000000     4.249000000
C    -3.186000000    -0.264000000     3.641000000
H    -3.113000000    -1.247000000     3.183000000
C    -2.287000000     1.565000000     4.839000000
H    -1.475000000     1.990000000     5.424000000
O     0.078000000    -0.035000000     5.128000000
H    -0.333000000    -0.295000000     3.112000000
C     1.041000000    -2.981000000     3.628000000
C     1.796000000    -2.405000000     4.804000000
H     2.691000000    -2.982000000     5.045000000
H     1.243000000    -2.463000000     5.745000000
C     2.290000000    -0.994000000     4.490000000
C     1.406000000     0.105000000     4.729000000
C     1.704000000     1.342000000     4.213000000
H     0.983000000     2.155000000     4.254000000
C     2.813000000     1.559000000     3.503000000
O     3.078000000     2.816000000     2.936000000
C     2.642000000     2.895000000     1.531000000
H     1.975000000     2.030000000     1.401000000
C     1.873000000     4.234000000     1.273000000
C     2.150000000     4.900000000     0.113000000
H     2.905000000     4.563000000    -0.593000000
C     0.909000000     4.757000000     2.206000000
H     0.694000000     4.299000000     3.169000000
C     0.081000000     5.806000000     1.751000000
O    -1.051000000     6.276000000     2.458000000
C     0.335000000     6.469000000     0.545000000
H    -0.356000000     7.226000000     0.183000000
C     1.369000000     6.019000000    -0.263000000
O     1.588000000     6.640000000    -1.450000000
C     1.834000000     5.984000000    -2.676000000
C     0.905000000     5.158000000    -3.295000000
H    -0.101000000     5.138000000    -2.884000000
C     3.081000000     6.229000000    -3.145000000
H     3.799000000     6.774000000    -2.538000000
C     3.523000000     5.507000000    -4.250000000
H     4.519000000     5.580000000    -4.678000000
C     2.653000000     4.631000000    -4.910000000
H     2.961000000     4.067000000    -5.787000000
C     1.355000000     4.500000000    -4.474000000
O     0.492000000     3.682000000    -5.135000000
C     0.683000000     2.311000000    -5.243000000
C    -0.144000000     1.627000000    -6.126000000
H    -0.901000000     2.216000000    -6.637000000
C    -0.120000000     0.280000000    -6.150000000
O    -0.975000000    -0.329000000    -7.107000000
C    -1.332000000    -1.627000000    -6.902000000
C    -2.283000000    -1.927000000    -5.913000000
H    -2.819000000    -1.113000000    -5.432000000
C    -0.788000000    -2.622000000    -7.651000000
H    -0.084000000    -2.495000000    -8.469000000
C    -1.266000000    -3.982000000    -7.500000000
H    -0.787000000    -4.789000000    -8.048000000
C    -2.214000000    -4.262000000    -6.457000000
H    -2.639000000    -5.262000000    -6.436000000
C    -2.643000000    -3.242000000    -5.680000000
O    -3.783000000    -3.433000000    -4.870000000
C    -3.707000000    -3.561000000    -3.550000000
C    -4.844000000    -3.423000000    -2.785000000
H    -5.788000000    -3.095000000    -3.213000000
C    -4.772000000    -3.549000000    -1.390000000
O    -5.921000000    -3.340000000    -0.671000000
C    -5.967000000    -3.080000000     0.706000000
C    -5.845000000    -1.692000000     1.021000000
H    -5.819000000    -0.901000000     0.276000000
C    -6.063000000    -4.072000000     1.697000000
H    -6.197000000    -5.138000000     1.534000000
C    -5.880000000    -3.664000000     3.039000000
H    -6.103000000    -4.284000000     3.904000000
C    -5.698000000    -2.335000000     3.388000000
H    -5.668000000    -1.972000000     4.412000000
C    -5.592000000    -1.370000000     2.352000000
O    -5.369000000    -0.024000000     2.668000000
C    -4.406000000     0.441000000     3.481000000
C    -4.590000000     1.730000000     4.004000000
H    -5.513000000     2.301000000     3.939000000
C    -3.508000000     2.273000000     4.763000000
O    -3.649000000     3.482000000     5.357000000
C    -2.775000000     4.502000000     5.130000000
C    -2.139000000     4.973000000     6.230000000
H    -2.326000000     4.584000000     7.228000000
C    -1.144000000     5.960000000     6.105000000
H    -0.643000000     6.333000000     6.994000000
C    -0.762000000     6.286000000     4.818000000
H     0.003000000     7.054000000     4.750000000
C    -1.408000000     5.921000000     3.662000000
C    -2.463000000     5.026000000     3.870000000
H    -2.844000000     4.456000000     3.027000000
C    -2.555000000    -0.128000000    -0.612000000
H    -3.481000000    -0.623000000    -0.328000000
C    -1.461000000    -0.519000000     0.243000000
H    -1.615000000    -1.146000000     1.117000000
C    -0.202000000    -0.094000000     0.010000000
H     0.652000000    -0.433000000     0.685000000
C     0.012000000     0.745000000    -1.076000000
H     1.022000000     1.100000000    -1.260000000
C    -1.034000000     1.114000000    -1.950000000
H    -0.783000000     1.658000000    -2.857000000
C    -2.332000000     0.657000000    -1.726000000
C    -3.486000000     0.977000000    -2.638000000
O    -3.251000000     1.714000000    -3.584000000
O    -4.664000000     0.956000000    -2.220000000
O    -1.191000000     2.410000000     1.479000000
H    -2.126000000     2.215000000     1.532000000
H    -0.863000000     1.828000000     0.793000000
O    -2.828000000     3.585000000    -5.566000000
H    -2.060000000     4.090000000    -5.297000000
H    -2.900000000     2.891000000    -4.911000000
O    -4.948000000     4.762000000    -6.654000000
H    -5.575000000     4.801000000    -5.932000000
H    -4.163000000     4.372000000    -6.269000000
O    -3.768000000     5.666000000     0.820000000
H    -3.392000000     6.413000000     0.353000000
H    -3.344000000     4.902000000     0.430000000
O    -7.032000000     4.789000000    -4.677000000
H    -6.914000000     4.095000000    -4.027000000
H    -7.946000000     4.707000000    -4.950000000
O    -8.589000000    -2.492000000    -0.568000000
H    -8.766000000    -2.199000000     0.326000000
H    -7.940000000    -1.871000000    -0.899000000
O    -6.862000000    -0.401000000    -1.926000000
H    -5.945000000    -0.124000000    -1.918000000
H    -7.152000000    -0.241000000    -2.824000000
O    -4.299000000     6.462000000    -3.291000000
H    -3.356000000     6.600000000    -3.205000000
H    -4.612000000     7.234000000    -3.762000000
O    -5.109000000     0.650000000    -5.383000000
H    -4.451000000     0.988000000    -4.775000000
H    -5.940000000     0.759000000    -4.921000000
O    -6.987000000     3.512000000     1.720000000
H    -6.310000000     2.946000000     1.349000000
H    -6.503000000     4.235000000     2.118000000
O    -3.570000000     4.026000000    -2.209000000
H    -3.951000000     3.320000000    -2.731000000
H    -4.073000000     4.803000000    -2.453000000
O    -6.178000000    -3.394000000    -6.723000000
H    -5.776000000    -2.526000000    -6.722000000
H    -5.933000000    -3.771000000    -7.567000000
O    -7.957000000     4.157000000    -1.362000000
H    -7.860000000     4.005000000    -0.422000000
H    -7.635000000     3.353000000    -1.769000000
O    -5.202000000    -0.883000000    -7.586000000
H    -6.129000000    -0.724000000    -7.763000000
H    -5.041000000    -0.452000000    -6.746000000
O    -8.599000000     0.923000000    -0.211000000
H    -9.388000000     1.161000000    -0.698000000
H    -8.041000000     0.489000000    -0.856000000
O    -3.494000000     2.299000000    -8.201000000
H    -3.571000000     1.379000000    -7.949000000
H    -3.212000000     2.744000000    -7.402000000
O    -8.454000000     0.010000000    -3.994000000
H    -9.390000000     0.208000000    -3.997000000
H    -8.382000000    -0.820000000    -4.465000000
O    -5.222000000     2.170000000     0.169000000
H    -4.601000000     2.883000000     0.023000000
H    -5.194000000     1.658000000    -0.639000000
O    -6.692000000     2.380000000    -3.239000000
H    -5.894000000     1.964000000    -2.911000000
H    -7.348000000     1.683000000    -3.226000000
