215
-1457.29765
C    -0.145000000    -0.081000000    -5.433000000
H    -0.261000000    -1.159000000    -5.353000000
C     0.802000000     0.604000000    -4.787000000
C     0.602000000     2.003000000    -4.556000000
H     1.342000000     2.507000000    -3.940000000
C     1.744000000    -0.120000000    -3.863000000
O     2.078000000    -1.476000000    -4.350000000
H     1.264000000    -0.164000000    -2.875000000
O     3.038000000     0.633000000    -3.702000000
C     3.594000000     0.696000000    -2.402000000
C     3.484000000     1.898000000    -1.676000000
H     2.976000000     2.765000000    -2.091000000
C     3.984000000     1.924000000    -0.380000000
O     3.790000000     3.134000000     0.273000000
C     4.745000000     0.883000000     0.210000000
C     5.278000000     1.090000000     1.579000000
H     6.125000000     0.409000000     1.681000000
C     4.225000000     0.710000000     2.566000000
C     3.950000000    -0.639000000     2.891000000
H     4.466000000    -1.485000000     2.443000000
H     5.492000000     2.143000000     1.777000000
C     4.931000000    -0.255000000    -0.602000000
H     5.458000000    -1.082000000    -0.132000000
C     4.343000000    -0.387000000    -1.919000000
C     4.498000000    -1.623000000    -2.790000000
H     5.430000000    -2.147000000    -2.570000000
H     4.508000000    -1.345000000    -3.846000000
C     3.299000000    -2.558000000    -2.572000000
C     3.293000000    -3.558000000    -1.605000000
H     4.028000000    -3.600000000    -0.806000000
C     2.200000000    -2.501000000    -3.410000000
C     1.106000000    -3.356000000    -3.286000000
H     0.268000000    -3.240000000    -3.967000000
C     0.998000000    -4.143000000    -2.174000000
O    -0.190000000    -4.659000000    -1.735000000
C    -0.932000000    -3.863000000    -0.833000000
C    -2.360000000    -3.823000000    -1.341000000
C    -3.419000000    -3.771000000    -0.357000000
H    -3.115000000    -3.765000000     0.686000000
C    -2.707000000    -3.705000000    -2.706000000
H    -1.891000000    -3.832000000    -3.413000000
O    -0.910000000    -4.639000000     0.374000000
H    -0.412000000    -2.903000000    -0.696000000
C     2.120000000    -4.265000000    -1.339000000
C     2.083000000    -5.181000000    -0.063000000
H     3.100000000    -5.446000000     0.233000000
H     1.435000000    -6.047000000    -0.208000000
C     1.379000000    -4.464000000     1.031000000
C     2.210000000    -3.909000000     2.004000000
H     3.279000000    -3.888000000     1.805000000
C     0.018000000    -4.338000000     1.277000000
C    -0.459000000    -3.712000000     2.419000000
H    -1.530000000    -3.601000000     2.566000000
C     0.354000000    -3.166000000     3.400000000
O    -0.293000000    -2.365000000     4.394000000
C    -0.277000000    -0.900000000     4.231000000
C    -1.588000000    -0.350000000     4.575000000
C    -2.803000000    -1.112000000     4.376000000
H    -2.733000000    -2.193000000     4.283000000
C    -1.632000000     1.037000000     4.844000000
H    -0.681000000     1.552000000     4.951000000
O     0.826000000    -0.271000000     4.835000000
H    -0.125000000    -0.744000000     3.152000000
C     1.747000000    -3.239000000     3.163000000
C     2.665000000    -2.455000000     4.122000000
H     3.643000000    -2.939000000     4.157000000
H     2.232000000    -2.342000000     5.118000000
C     2.865000000    -0.983000000     3.706000000
C     2.004000000     0.032000000     4.183000000
C     2.287000000     1.367000000     3.815000000
H     1.651000000     2.170000000     4.180000000
C     3.415000000     1.704000000     3.089000000
O     3.470000000     3.078000000     2.696000000
C     2.820000000     3.228000000     1.383000000
H     1.931000000     2.589000000     1.271000000
C     2.077000000     4.527000000     1.362000000
C     1.850000000     5.093000000     0.123000000
H     2.262000000     4.668000000    -0.789000000
C     1.495000000     5.036000000     2.526000000
H     1.688000000     4.452000000     3.422000000
C     0.675000000     6.166000000     2.465000000
O    -0.226000000     6.440000000     3.474000000
C     0.546000000     6.829000000     1.237000000
H    -0.159000000     7.641000000     1.078000000
C     1.058000000     6.190000000     0.106000000
O     0.700000000     6.820000000    -1.070000000
C     0.935000000     6.198000000    -2.343000000
C    -0.074000000     5.531000000    -3.087000000
H    -1.068000000     5.311000000    -2.706000000
C     2.153000000     6.426000000    -3.001000000
H     2.946000000     7.067000000    -2.624000000
C     2.478000000     5.850000000    -4.239000000
H     3.453000000     6.000000000    -4.695000000
C     1.508000000     4.995000000    -4.801000000
H     1.805000000     4.469000000    -5.704000000
C     0.196000000     4.898000000    -4.297000000
O    -0.691000000     4.058000000    -4.976000000
C    -0.458000000     2.661000000    -5.165000000
C    -1.360000000     1.939000000    -5.931000000
H    -2.214000000     2.458000000    -6.359000000
C    -1.202000000     0.562000000    -6.042000000
O    -2.203000000    -0.054000000    -6.734000000
C    -2.438000000    -1.351000000    -6.671000000
C    -3.041000000    -1.882000000    -5.489000000
H    -3.335000000    -1.265000000    -4.644000000
C    -2.174000000    -2.217000000    -7.743000000
H    -1.848000000    -1.875000000    -8.722000000
C    -2.527000000    -3.611000000    -7.631000000
H    -2.360000000    -4.271000000    -8.479000000
C    -3.221000000    -4.100000000    -6.509000000
H    -3.685000000    -5.083000000    -6.524000000
C    -3.495000000    -3.205000000    -5.475000000
O    -4.398000000    -3.559000000    -4.449000000
C    -4.051000000    -3.624000000    -3.117000000
C    -5.101000000    -3.631000000    -2.134000000
H    -6.161000000    -3.535000000    -2.353000000
C    -4.753000000    -3.669000000    -0.759000000
O    -5.755000000    -3.450000000     0.133000000
C    -5.663000000    -3.407000000     1.511000000
C    -5.474000000    -2.224000000     2.196000000
H    -5.436000000    -1.267000000     1.683000000
C    -5.598000000    -4.595000000     2.183000000
H    -5.672000000    -5.552000000     1.673000000
C    -5.452000000    -4.642000000     3.625000000
H    -5.538000000    -5.579000000     4.169000000
C    -5.343000000    -3.438000000     4.302000000
H    -5.201000000    -3.398000000     5.379000000
C    -5.328000000    -2.227000000     3.569000000
O    -5.289000000    -0.979000000     4.278000000
C    -4.032000000    -0.427000000     4.452000000
C    -4.029000000     0.952000000     4.748000000
H    -4.936000000     1.540000000     4.861000000
C    -2.827000000     1.655000000     5.047000000
O    -2.988000000     2.999000000     5.398000000
C    -1.916000000     3.944000000     5.481000000
C    -1.316000000     4.080000000     6.730000000
H    -1.720000000     3.502000000     7.557000000
C    -0.207000000     4.904000000     6.805000000
H     0.424000000     4.946000000     7.689000000
C     0.204000000     5.700000000     5.763000000
H     0.984000000     6.437000000     5.930000000
C    -0.429000000     5.584000000     4.530000000
C    -1.467000000     4.655000000     4.377000000
H    -1.970000000     4.543000000     3.419000000
C    -2.713000000    -0.003000000     0.010000000
H    -3.663000000    -0.430000000     0.324000000
C    -1.561000000    -0.546000000     0.529000000
H    -1.661000000    -1.354000000     1.249000000
C    -0.301000000    -0.048000000     0.090000000
H     0.672000000    -0.365000000     0.593000000
C    -0.262000000     1.018000000    -0.797000000
H     0.753000000     1.360000000    -0.980000000
C    -1.446000000     1.521000000    -1.361000000
H    -1.487000000     2.218000000    -2.194000000
C    -2.688000000     0.972000000    -0.971000000
C    -3.989000000     1.414000000    -1.639000000
O    -4.010000000     2.356000000    -2.373000000
O    -5.029000000     0.920000000    -1.210000000
O    -2.401000000     3.033000000     0.925000000
H    -2.631000000     3.506000000     0.124000000
H    -2.067000000     2.190000000     0.618000000
O    -4.166000000     3.359000000    -5.023000000
H    -3.803000000     4.237000000    -4.902000000
H    -4.085000000     2.947000000    -4.163000000
O    -3.765000000     5.034000000    -7.387000000
H    -3.917000000     4.370000000    -6.714000000
H    -2.856000000     5.303000000    -7.256000000
O    -4.830000000     5.689000000     3.462000000
H    -5.688000000     5.266000000     3.494000000
H    -4.600000000     5.691000000     2.533000000
O    -4.330000000     6.328000000     0.724000000
H    -3.871000000     7.083000000     0.355000000
H    -4.059000000     5.592000000     0.174000000
O    -8.740000000    -2.890000000    -0.816000000
H    -8.888000000    -3.007000000     0.122000000
H    -8.130000000    -2.154000000    -0.873000000
O    -7.515000000    -0.527000000    -0.767000000
H    -6.663000000    -0.090000000    -0.763000000
H    -7.959000000    -0.177000000    -1.539000000
O    -3.043000000     5.951000000    -4.589000000
H    -2.290000000     6.492000000    -4.827000000
H    -3.740000000     6.237000000    -5.179000000
O    -6.052000000     0.081000000    -3.960000000
H    -5.765000000     0.375000000    -3.095000000
H    -6.419000000    -0.790000000    -3.807000000
O    -7.296000000     3.824000000     2.940000000
H    -8.019000000     3.851000000     2.313000000
H    -6.786000000     3.056000000     2.684000000
O    -3.467000000     4.815000000    -1.419000000
H    -3.825000000     3.980000000    -1.721000000
H    -2.941000000     5.130000000    -2.154000000
O    -6.497000000     5.766000000    -2.078000000
H    -5.637000000     5.608000000    -1.689000000
H    -6.559000000     5.128000000    -2.789000000
O    -4.924000000     1.155000000    -6.351000000
H    -4.489000000     1.908000000    -5.951000000
H    -5.248000000     0.643000000    -5.610000000
O    -7.277000000    -2.176000000    -3.985000000
H    -7.971000000    -2.816000000    -4.144000000
H    -6.501000000    -2.556000000    -4.395000000
O    -9.319000000     0.135000000    -3.489000000
H   -10.199000000     0.054000000    -3.857000000
H    -8.859000000    -0.647000000    -3.794000000
O    -8.565000000     3.531000000    -0.437000000
H    -7.725000000     3.790000000    -0.816000000
H    -8.569000000     2.576000000    -0.494000000
O    -5.222000000     1.818000000     1.340000000
H    -4.327000000     1.997000000     1.628000000
H    -5.118000000     1.367000000     0.502000000
O    -6.788000000     2.749000000    -2.615000000
H    -6.186000000     2.348000000    -1.987000000
H    -6.696000000     2.218000000    -3.406000000
O    -8.475000000    -0.277000000     1.753000000
H    -7.840000000    -0.058000000     1.071000000
H    -9.300000000     0.093000000     1.438000000
