215
-1432.47500
C    -0.063000000    -1.292000000    -4.775000000
H    -0.139000000    -2.315000000    -4.416000000
C     1.073000000    -0.621000000    -4.433000000
C     1.193000000     0.690000000    -4.942000000
H     2.057000000     1.297000000    -4.682000000
C     2.073000000    -1.240000000    -3.400000000
O     2.373000000    -2.690000000    -3.542000000
H     1.598000000    -1.076000000    -2.421000000
O     3.365000000    -0.568000000    -3.445000000
C     3.874000000    -0.058000000    -2.265000000
C     3.824000000     1.252000000    -1.924000000
H     3.297000000     1.957000000    -2.563000000
C     4.250000000     1.725000000    -0.709000000
O     3.905000000     3.000000000    -0.469000000
C     4.809000000     0.820000000     0.260000000
C     5.165000000     1.270000000     1.673000000
H     6.006000000     0.752000000     2.140000000
C     3.943000000     1.201000000     2.586000000
C     3.626000000    -0.020000000     3.254000000
H     4.346000000    -0.827000000     3.152000000
H     5.505000000     2.300000000     1.546000000
C     4.761000000    -0.520000000     0.003000000
H     5.054000000    -1.174000000     0.820000000
C     4.338000000    -0.962000000    -1.274000000
C     4.565000000    -2.412000000    -1.663000000
H     5.397000000    -2.889000000    -1.142000000
H     4.727000000    -2.516000000    -2.738000000
C     3.334000000    -3.267000000    -1.423000000
C     3.108000000    -3.696000000    -0.087000000
H     3.884000000    -3.597000000     0.667000000
C     2.325000000    -3.349000000    -2.345000000
C     1.164000000    -3.993000000    -2.000000000
H     0.327000000    -3.947000000    -2.691000000
C     1.050000000    -4.597000000    -0.755000000
O    -0.151000000    -5.160000000    -0.512000000
C    -0.968000000    -4.352000000     0.350000000
C    -2.373000000    -4.267000000    -0.291000000
C    -3.436000000    -3.827000000     0.508000000
H    -3.106000000    -3.420000000     1.460000000
C    -2.633000000    -4.628000000    -1.609000000
H    -1.769000000    -4.946000000    -2.186000000
O    -1.005000000    -4.697000000     1.726000000
H    -0.671000000    -3.293000000     0.319000000
C     2.037000000    -4.529000000     0.227000000
C     1.873000000    -5.137000000     1.631000000
H     2.833000000    -5.493000000     2.012000000
H     1.199000000    -5.991000000     1.542000000
C     1.147000000    -4.099000000     2.542000000
C     1.969000000    -3.233000000     3.258000000
H     3.054000000    -3.242000000     3.195000000
C    -0.240000000    -4.023000000     2.620000000
C    -0.844000000    -3.044000000     3.348000000
H    -1.930000000    -3.042000000     3.403000000
C    -0.017000000    -2.116000000     3.953000000
O    -0.611000000    -1.100000000     4.668000000
C    -0.589000000     0.210000000     4.155000000
C    -1.915000000     0.980000000     4.120000000
C    -3.173000000     0.308000000     4.102000000
H    -3.145000000    -0.770000000     4.240000000
C    -1.983000000     2.360000000     3.946000000
H    -1.076000000     2.919000000     3.732000000
O     0.414000000     0.971000000     4.797000000
H    -0.336000000     0.036000000     3.099000000
C     1.376000000    -2.212000000     3.927000000
C     2.225000000    -1.275000000     4.799000000
H     3.124000000    -1.792000000     5.143000000
H     1.744000000    -1.114000000     5.766000000
C     2.516000000    -0.012000000     4.091000000
C     1.587000000     1.042000000     4.114000000
C     1.890000000     2.217000000     3.468000000
H     1.140000000     3.003000000     3.510000000
C     3.060000000     2.298000000     2.683000000
O     3.215000000     3.393000000     1.833000000
C     2.804000000     3.266000000     0.425000000
H     2.215000000     2.338000000     0.388000000
C     1.982000000     4.390000000    -0.055000000
C     1.792000000     4.666000000    -1.407000000
H     2.088000000     3.965000000    -2.183000000
C     1.322000000     5.147000000     0.872000000
H     1.338000000     4.882000000     1.927000000
C     0.659000000     6.286000000     0.520000000
O     0.098000000     7.170000000     1.533000000
C     0.524000000     6.690000000    -0.786000000
H     0.105000000     7.648000000    -1.080000000
C     1.094000000     5.823000000    -1.753000000
O     0.893000000     6.061000000    -3.109000000
C     1.396000000     5.347000000    -4.202000000
C     0.614000000     4.239000000    -4.713000000
H    -0.293000000     3.957000000    -4.185000000
C     2.530000000     5.870000000    -4.810000000
H     3.007000000     6.782000000    -4.460000000
C     3.011000000     5.217000000    -5.975000000
H     3.944000000     5.503000000    -6.454000000
C     2.345000000     4.057000000    -6.425000000
H     2.722000000     3.539000000    -7.303000000
C     1.127000000     3.579000000    -5.869000000
O     0.461000000     2.460000000    -6.342000000
C     0.216000000     1.251000000    -5.775000000
C    -0.890000000     0.519000000    -6.150000000
H    -1.609000000     0.966000000    -6.832000000
C    -1.047000000    -0.734000000    -5.595000000
O    -2.061000000    -1.570000000    -6.170000000
C    -2.280000000    -2.931000000    -5.775000000
C    -3.096000000    -3.320000000    -4.741000000
H    -3.566000000    -2.581000000    -4.097000000
C    -1.583000000    -3.926000000    -6.425000000
H    -0.845000000    -3.669000000    -7.181000000
C    -1.878000000    -5.258000000    -6.144000000
H    -1.320000000    -6.011000000    -6.695000000
C    -2.692000000    -5.684000000    -5.087000000
H    -2.970000000    -6.733000000    -5.025000000
C    -3.269000000    -4.660000000    -4.342000000
O    -4.215000000    -4.950000000    -3.333000000
C    -3.980000000    -4.556000000    -2.067000000
C    -4.979000000    -4.004000000    -1.289000000
H    -5.861000000    -3.717000000    -1.854000000
C    -4.771000000    -3.627000000     0.025000000
O    -5.771000000    -3.058000000     0.756000000
C    -5.625000000    -2.713000000     2.006000000
C    -5.616000000    -1.365000000     2.344000000
H    -5.608000000    -0.623000000     1.550000000
C    -5.726000000    -3.683000000     3.030000000
H    -5.689000000    -4.728000000     2.733000000
C    -5.714000000    -3.354000000     4.357000000
H    -5.761000000    -4.109000000     5.138000000
C    -5.806000000    -1.976000000     4.693000000
H    -5.874000000    -1.709000000     5.744000000
C    -5.635000000    -0.953000000     3.728000000
O    -5.594000000     0.353000000     4.101000000
C    -4.406000000     1.023000000     3.992000000
C    -4.355000000     2.372000000     3.959000000
H    -5.333000000     2.847000000     3.968000000
C    -3.170000000     3.033000000     3.980000000
O    -3.310000000     4.421000000     3.837000000
C    -2.272000000     5.313000000     3.779000000
C    -1.668000000     5.777000000     5.010000000
H    -2.112000000     5.357000000     5.909000000
C    -0.638000000     6.678000000     5.070000000
H    -0.301000000     7.108000000     6.010000000
C    -0.064000000     7.067000000     3.874000000
H     0.723000000     7.815000000     3.905000000
C    -0.545000000     6.623000000     2.638000000
C    -1.656000000     5.728000000     2.581000000
H    -2.122000000     5.551000000     1.615000000
C    -2.204000000    -0.590000000    -0.446000000
H    -3.118000000    -1.027000000    -0.052000000
C    -1.013000000    -0.516000000     0.300000000
H    -0.937000000    -0.951000000     1.294000000
C     0.090000000     0.170000000    -0.149000000
H     1.036000000     0.163000000     0.436000000
C    -0.023000000     0.906000000    -1.364000000
H     0.790000000     1.486000000    -1.794000000
C    -1.229000000     0.902000000    -2.086000000
H    -1.297000000     1.463000000    -3.014000000
C    -2.287000000     0.121000000    -1.671000000
C    -3.566000000     0.213000000    -2.375000000
O    -3.565000000     0.941000000    -3.351000000
O    -4.589000000    -0.226000000    -1.869000000
O    -1.816000000     2.867000000     0.266000000
H    -1.423000000     2.011000000     0.098000000
H    -1.918000000     3.258000000    -0.602000000
O    -3.523000000     2.339000000    -5.654000000
H    -3.415000000     3.159000000    -5.172000000
H    -3.545000000     1.664000000    -4.976000000
O    -3.521000000     3.136000000    -8.091000000
H    -3.384000000     2.821000000    -7.197000000
H    -2.721000000     2.891000000    -8.557000000
O    -4.197000000     4.285000000     0.920000000
H    -3.503000000     4.486000000     0.293000000
H    -4.030000000     3.379000000     1.179000000
O    -5.674000000     1.502000000    -0.176000000
H    -5.468000000     0.704000000    -0.663000000
H    -5.341000000     2.211000000    -0.726000000
O    -3.139000000     5.099000000    -4.629000000
H    -3.854000000     5.696000000    -4.410000000
H    -2.486000000     5.653000000    -5.057000000
O    -6.862000000    -1.366000000    -2.731000000
H    -5.958000000    -1.146000000    -2.505000000
H    -7.233000000    -0.547000000    -3.059000000
O    -7.554000000     1.467000000     1.886000000
H    -6.944000000     1.558000000     1.154000000
H    -7.306000000     0.642000000     2.303000000
O    -9.149000000     1.339000000    -4.965000000
H    -9.093000000     2.223000000    -5.328000000
H    -8.250000000     1.012000000    -4.991000000
O    -5.179000000     3.251000000    -1.886000000
H    -4.365000000     3.071000000    -2.357000000
H    -5.241000000     4.206000000    -1.873000000
O    -4.775000000    -1.112000000    -7.109000000
H    -4.580000000    -0.657000000    -7.928000000
H    -3.919000000    -1.378000000    -6.773000000
O    -5.468000000     5.933000000    -1.886000000
H    -5.824000000     6.066000000    -2.764000000
H    -4.723000000     6.531000000    -1.836000000
O    -2.158000000     4.586000000    -2.160000000
H    -2.301000000     4.614000000    -3.106000000
H    -1.986000000     5.496000000    -1.917000000
O    -6.753000000     0.029000000    -5.952000000
H    -6.086000000    -0.330000000    -6.537000000
H    -6.261000000     0.348000000    -5.195000000
O    -8.751000000    -2.320000000    -4.863000000
H    -8.450000000    -3.228000000    -4.871000000
H    -8.061000000    -1.843000000    -4.401000000
O    -6.134000000    -3.963000000    -6.573000000
H    -5.985000000    -3.832000000    -5.636000000
H    -5.677000000    -3.234000000    -6.992000000
O    -8.344000000     1.374000000    -1.238000000
H    -7.904000000     1.633000000    -0.428000000
H    -7.687000000     1.508000000    -1.921000000
O    -6.658000000     1.206000000    -3.404000000
H    -5.802000000     1.131000000    -2.982000000
H    -6.765000000     2.144000000    -3.561000000
O    -8.727000000    -2.216000000    -0.412000000
H    -8.054000000    -2.004000000    -1.058000000
H    -9.513000000    -1.770000000    -0.729000000
