215
-1463.62458
C     0.277000000    -0.864000000    -4.791000000
H     0.039000000    -1.858000000    -4.420000000
C     1.388000000    -0.147000000    -4.352000000
C     1.559000000     1.176000000    -4.847000000
H     2.465000000     1.667000000    -4.500000000
C     2.317000000    -0.842000000    -3.359000000
O     2.415000000    -2.267000000    -3.556000000
H     1.897000000    -0.736000000    -2.348000000
O     3.621000000    -0.332000000    -3.459000000
C     4.137000000    -0.012000000    -2.228000000
C     3.939000000     1.345000000    -1.867000000
H     3.534000000     2.155000000    -2.467000000
C     4.407000000     1.764000000    -0.591000000
O     4.102000000     3.067000000    -0.169000000
C     4.822000000     0.829000000     0.365000000
C     5.119000000     1.192000000     1.829000000
H     5.960000000     0.692000000     2.314000000
C     3.802000000     1.095000000     2.637000000
C     3.632000000    -0.089000000     3.392000000
H     4.473000000    -0.777000000     3.394000000
H     5.402000000     2.244000000     1.888000000
C     4.977000000    -0.502000000    -0.040000000
H     5.383000000    -1.252000000     0.633000000
C     4.657000000    -0.904000000    -1.323000000
C     4.686000000    -2.440000000    -1.707000000
H     5.457000000    -2.929000000    -1.109000000
H     5.030000000    -2.582000000    -2.734000000
C     3.358000000    -3.134000000    -1.457000000
C     3.119000000    -3.770000000    -0.294000000
H     3.934000000    -3.741000000     0.424000000
C     2.389000000    -3.147000000    -2.465000000
C     1.182000000    -3.755000000    -2.207000000
H     0.337000000    -3.791000000    -2.891000000
C     0.921000000    -4.357000000    -0.967000000
O    -0.363000000    -4.935000000    -0.728000000
C    -1.245000000    -4.270000000     0.213000000
C    -2.689000000    -4.314000000    -0.328000000
C    -3.823000000    -4.383000000     0.493000000
H    -3.687000000    -4.448000000     1.570000000
C    -2.960000000    -4.109000000    -1.670000000
H    -2.093000000    -3.909000000    -2.294000000
O    -1.028000000    -4.896000000     1.474000000
H    -0.920000000    -3.223000000     0.304000000
C     1.903000000    -4.414000000    -0.035000000
C     1.747000000    -5.200000000     1.272000000
H     2.753000000    -5.457000000     1.610000000
H     1.274000000    -6.179000000     1.170000000
C     1.152000000    -4.348000000     2.364000000
C     1.979000000    -3.481000000     3.179000000
H     3.065000000    -3.454000000     3.147000000
C    -0.218000000    -4.252000000     2.425000000
C    -0.839000000    -3.282000000     3.167000000
H    -1.921000000    -3.177000000     3.184000000
C    -0.066000000    -2.377000000     3.897000000
O    -0.808000000    -1.494000000     4.609000000
C    -0.698000000    -0.081000000     4.167000000
C    -2.029000000     0.652000000     4.033000000
C    -3.240000000    -0.068000000     3.701000000
H    -3.227000000    -1.154000000     3.675000000
C    -2.118000000     2.071000000     4.036000000
H    -1.232000000     2.695000000     4.127000000
O     0.284000000     0.587000000     4.932000000
H    -0.321000000    -0.111000000     3.134000000
C     1.327000000    -2.518000000     3.959000000
C     2.124000000    -1.525000000     4.821000000
H     3.089000000    -1.995000000     5.019000000
H     1.559000000    -1.286000000     5.724000000
C     2.471000000    -0.238000000     4.171000000
C     1.524000000     0.816000000     4.273000000
C     1.660000000     1.928000000     3.460000000
H     1.004000000     2.786000000     3.581000000
C     2.767000000     2.072000000     2.620000000
O     2.915000000     3.219000000     1.936000000
C     2.828000000     3.226000000     0.481000000
H     2.144000000     2.404000000     0.222000000
C     2.207000000     4.526000000     0.051000000
C     2.356000000     5.016000000    -1.253000000
H     2.949000000     4.524000000    -2.020000000
C     1.479000000     5.222000000     0.983000000
H     1.451000000     4.876000000     2.013000000
C     0.722000000     6.365000000     0.585000000
O    -0.005000000     7.082000000     1.549000000
C     0.753000000     6.786000000    -0.713000000
H     0.115000000     7.592000000    -1.066000000
C     1.569000000     6.138000000    -1.662000000
O     1.691000000     6.587000000    -2.984000000
C     2.104000000     5.808000000    -4.037000000
C     1.190000000     5.003000000    -4.600000000
H     0.140000000     5.222000000    -4.427000000
C     3.457000000     5.685000000    -4.369000000
H     4.253000000     6.297000000    -3.953000000
C     3.908000000     4.705000000    -5.215000000
H     4.936000000     4.610000000    -5.557000000
C     2.968000000     3.836000000    -5.793000000
H     3.292000000     3.052000000    -6.473000000
C     1.595000000     4.025000000    -5.495000000
O     0.668000000     3.136000000    -5.987000000
C     0.633000000     1.749000000    -5.646000000
C    -0.549000000     1.057000000    -5.984000000
H    -1.316000000     1.462000000    -6.639000000
C    -0.644000000    -0.288000000    -5.615000000
O    -1.734000000    -0.946000000    -6.053000000
C    -2.157000000    -2.226000000    -5.765000000
C    -3.275000000    -2.441000000    -4.916000000
H    -3.842000000    -1.585000000    -4.559000000
C    -1.465000000    -3.296000000    -6.211000000
H    -0.544000000    -3.164000000    -6.774000000
C    -1.873000000    -4.554000000    -5.819000000
H    -1.218000000    -5.360000000    -6.139000000
C    -2.927000000    -4.786000000    -4.926000000
H    -3.147000000    -5.758000000    -4.491000000
C    -3.643000000    -3.685000000    -4.494000000
O    -4.582000000    -3.776000000    -3.527000000
C    -4.292000000    -4.047000000    -2.177000000
C    -5.357000000    -4.173000000    -1.278000000
H    -6.348000000    -4.077000000    -1.716000000
C    -5.141000000    -4.293000000     0.056000000
O    -6.171000000    -4.380000000     1.020000000
C    -6.230000000    -3.616000000     2.163000000
C    -5.818000000    -2.316000000     2.121000000
H    -5.643000000    -1.858000000     1.151000000
C    -6.775000000    -4.116000000     3.342000000
H    -7.127000000    -5.144000000     3.370000000
C    -6.681000000    -3.354000000     4.543000000
H    -6.949000000    -3.809000000     5.493000000
C    -6.330000000    -1.998000000     4.429000000
H    -6.231000000    -1.319000000     5.273000000
C    -5.900000000    -1.433000000     3.229000000
O    -5.666000000    -0.044000000     3.172000000
C    -4.439000000     0.621000000     3.472000000
C    -4.504000000     1.950000000     3.311000000
H    -5.410000000     2.429000000     2.949000000
C    -3.375000000     2.671000000     3.681000000
O    -3.388000000     4.038000000     3.328000000
C    -2.348000000     4.899000000     3.544000000
C    -1.945000000     5.237000000     4.801000000
H    -2.433000000     4.729000000     5.629000000
C    -0.906000000     6.134000000     4.984000000
H    -0.486000000     6.312000000     5.971000000
C    -0.341000000     6.809000000     3.865000000
H     0.410000000     7.580000000     4.014000000
C    -0.790000000     6.537000000     2.581000000
C    -1.721000000     5.494000000     2.433000000
H    -1.968000000     5.233000000     1.407000000
C    -2.390000000    -0.311000000    -0.437000000
H    -3.279000000    -0.819000000    -0.071000000
C    -1.283000000    -0.307000000     0.404000000
H    -1.314000000    -0.853000000     1.344000000
C    -0.095000000     0.351000000    -0.002000000
H     0.783000000     0.371000000     0.732000000
C     0.024000000     0.951000000    -1.239000000
H     0.938000000     1.449000000    -1.553000000
C    -1.062000000     0.859000000    -2.127000000
H    -0.931000000     1.364000000    -3.081000000
C    -2.273000000     0.269000000    -1.718000000
C    -3.482000000     0.466000000    -2.532000000
O    -3.442000000     1.066000000    -3.624000000
O    -4.532000000    -0.003000000    -2.156000000
O    -1.045000000     4.001000000    -1.375000000
H    -0.574000000     3.168000000    -1.364000000
H    -1.138000000     4.212000000    -2.304000000
O    -2.681000000     4.602000000    -7.180000000
H    -2.639000000     4.426000000    -8.120000000
H    -2.151000000     5.390000000    -7.060000000
O    -4.695000000     0.967000000    -5.960000000
H    -4.382000000     0.257000000    -6.522000000
H    -4.154000000     0.905000000    -5.173000000
O    -7.308000000     1.104000000    -7.156000000
H    -6.617000000     1.093000000    -6.494000000
H    -6.860000000     1.348000000    -7.966000000
O    -4.979000000     3.687000000    -5.843000000
H    -4.733000000     2.762000000    -5.823000000
H    -4.275000000     4.111000000    -6.333000000
O    -3.665000000     3.684000000    -0.515000000
H    -3.950000000     3.715000000    -1.429000000
H    -2.709000000     3.715000000    -0.562000000
O    -4.241000000    -1.080000000    -7.855000000
H    -5.014000000    -1.613000000    -7.669000000
H    -3.548000000    -1.716000000    -8.029000000
O    -5.793000000     1.681000000     0.019000000
H    -5.669000000     1.307000000    -0.853000000
H    -4.912000000     1.932000000     0.299000000
O    -1.827000000     3.352000000    -4.058000000
H    -2.286000000     2.526000000    -3.906000000
H    -2.156000000     3.657000000    -4.903000000
O    -4.803000000     3.386000000    -3.170000000
H    -5.037000000     3.563000000    -4.081000000
H    -4.284000000     2.583000000    -3.207000000
O    -6.787000000    -1.800000000    -7.121000000
H    -6.840000000    -1.326000000    -7.951000000
H    -7.059000000    -1.162000000    -6.462000000
O    -7.794000000    -1.315000000    -0.369000000
H    -7.704000000    -0.850000000     0.463000000
H    -7.012000000    -1.073000000    -0.865000000
O    -8.047000000     0.640000000     1.469000000
H    -7.207000000     1.039000000     1.240000000
H    -8.695000000     1.318000000     1.273000000
O    -9.107000000     2.395000000    -2.319000000
H    -9.806000000     1.851000000    -1.957000000
H    -8.481000000     1.770000000    -2.684000000
O    -7.152000000     4.068000000     0.342000000
H    -6.786000000     4.715000000     0.946000000
H    -6.661000000     3.266000000     0.525000000
O    -8.568000000    -1.844000000    -4.282000000
H    -8.185000000    -2.719000000    -4.347000000
H    -8.857000000    -1.775000000    -3.373000000
O    -4.198000000     6.038000000    -3.952000000
H    -4.279000000     5.130000000    -3.660000000
H    -3.255000000     6.197000000    -3.982000000
O    -7.173000000    -4.269000000    -4.423000000
H    -6.227000000    -4.136000000    -4.486000000
H    -7.447000000    -4.470000000    -5.318000000
O    -7.000000000     0.492000000    -2.918000000
H    -7.225000000    -0.139000000    -3.602000000
H    -6.044000000     0.544000000    -2.945000000
