215
-1447.54095
C     0.331000000    -0.847000000    -5.167000000
H     0.367000000    -1.887000000    -4.855000000
C     1.340000000    -0.064000000    -4.635000000
C     1.423000000     1.314000000    -4.920000000
H     2.129000000     1.962000000    -4.407000000
C     2.174000000    -0.632000000    -3.544000000
O     2.429000000    -1.998000000    -3.835000000
H     1.811000000    -0.438000000    -2.524000000
O     3.500000000    -0.059000000    -3.548000000
C     4.123000000     0.099000000    -2.330000000
C     3.991000000     1.354000000    -1.878000000
H     3.534000000     2.173000000    -2.428000000
C     4.393000000     1.603000000    -0.599000000
O     4.066000000     2.831000000    -0.015000000
C     4.879000000     0.585000000     0.266000000
C     5.141000000     0.875000000     1.715000000
H     5.933000000     0.160000000     1.947000000
C     3.954000000     0.589000000     2.610000000
C     3.661000000    -0.634000000     3.204000000
H     4.378000000    -1.428000000     3.009000000
H     5.559000000     1.881000000     1.781000000
C     4.895000000    -0.742000000    -0.206000000
H     5.288000000    -1.512000000     0.454000000
C     4.595000000    -0.984000000    -1.559000000
C     4.707000000    -2.356000000    -2.159000000
H     5.575000000    -2.777000000    -1.647000000
H     5.058000000    -2.250000000    -3.188000000
C     3.424000000    -3.147000000    -1.987000000
C     3.203000000    -4.003000000    -0.852000000
H     3.963000000    -4.215000000    -0.104000000
C     2.351000000    -2.866000000    -2.889000000
C     1.079000000    -3.447000000    -2.577000000
H     0.268000000    -3.301000000    -3.285000000
C     0.827000000    -4.155000000    -1.423000000
O    -0.417000000    -4.669000000    -1.240000000
C    -1.317000000    -4.044000000    -0.298000000
C    -2.714000000    -3.886000000    -0.698000000
C    -3.795000000    -3.935000000     0.161000000
H    -3.729000000    -4.212000000     1.210000000
C    -2.965000000    -3.549000000    -2.050000000
H    -2.150000000    -3.443000000    -2.761000000
O    -1.235000000    -4.818000000     0.931000000
H    -0.997000000    -3.028000000    -0.023000000
C     1.907000000    -4.457000000    -0.547000000
C     1.624000000    -5.225000000     0.677000000
H     2.538000000    -5.710000000     1.027000000
H     0.988000000    -6.068000000     0.395000000
C     0.921000000    -4.378000000     1.759000000
C     1.822000000    -3.674000000     2.634000000
H     2.885000000    -3.875000000     2.526000000
C    -0.437000000    -4.289000000     1.913000000
C    -1.027000000    -3.461000000     2.888000000
H    -2.080000000    -3.194000000     2.930000000
C    -0.161000000    -2.691000000     3.682000000
O    -0.727000000    -1.777000000     4.546000000
C    -0.483000000    -0.428000000     4.196000000
C    -1.819000000     0.351000000     4.271000000
C    -3.054000000    -0.245000000     3.948000000
H    -3.060000000    -1.261000000     3.561000000
C    -1.718000000     1.702000000     4.609000000
H    -0.785000000     2.179000000     4.897000000
O     0.539000000     0.106000000     4.964000000
H    -0.229000000    -0.452000000     3.126000000
C     1.262000000    -2.803000000     3.587000000
C     2.210000000    -2.158000000     4.556000000
H     3.081000000    -2.815000000     4.589000000
H     1.766000000    -2.075000000     5.550000000
C     2.582000000    -0.771000000     4.004000000
C     1.697000000     0.240000000     4.286000000
C     1.932000000     1.494000000     3.701000000
H     1.231000000     2.313000000     3.842000000
C     3.010000000     1.639000000     2.831000000
O     3.209000000     2.921000000     2.266000000
C     2.863000000     3.037000000     0.803000000
H     2.161000000     2.197000000     0.699000000
C     2.052000000     4.264000000     0.443000000
C     1.894000000     4.854000000    -0.792000000
H     2.608000000     4.522000000    -1.542000000
C     1.223000000     4.772000000     1.465000000
H     1.260000000     4.293000000     2.440000000
C     0.326000000     5.853000000     1.204000000
O    -0.454000000     6.444000000     2.111000000
C     0.194000000     6.306000000    -0.072000000
H    -0.535000000     7.086000000    -0.275000000
C     1.032000000     5.887000000    -1.069000000
O     0.960000000     6.410000000    -2.324000000
C     1.585000000     5.841000000    -3.470000000
C     0.840000000     4.910000000    -4.101000000
H    -0.132000000     4.629000000    -3.704000000
C     2.884000000     6.207000000    -3.959000000
H     3.514000000     6.960000000    -3.492000000
C     3.405000000     5.533000000    -5.139000000
H     4.317000000     5.904000000    -5.601000000
C     2.621000000     4.547000000    -5.731000000
H     2.945000000     4.039000000    -6.636000000
C     1.330000000     4.284000000    -5.226000000
O     0.508000000     3.333000000    -5.898000000
C     0.504000000     1.917000000    -5.782000000
C    -0.436000000     1.098000000    -6.370000000
H    -1.247000000     1.480000000    -6.984000000
C    -0.538000000    -0.283000000    -6.083000000
O    -1.525000000    -0.902000000    -6.835000000
C    -2.059000000    -2.063000000    -6.366000000
C    -3.064000000    -1.976000000    -5.412000000
H    -3.444000000    -0.985000000    -5.178000000
C    -1.487000000    -3.325000000    -6.692000000
H    -0.698000000    -3.312000000    -7.440000000
C    -1.951000000    -4.507000000    -6.141000000
H    -1.586000000    -5.473000000    -6.482000000
C    -2.985000000    -4.397000000    -5.210000000
H    -3.434000000    -5.265000000    -4.733000000
C    -3.577000000    -3.156000000    -4.874000000
O    -4.511000000    -3.091000000    -3.858000000
C    -4.259000000    -3.332000000    -2.510000000
C    -5.356000000    -3.416000000    -1.577000000
H    -6.390000000    -3.201000000    -1.837000000
C    -5.117000000    -3.665000000    -0.241000000
O    -6.215000000    -3.601000000     0.645000000
C    -6.074000000    -3.145000000     1.980000000
C    -5.700000000    -1.800000000     2.172000000
H    -5.586000000    -1.110000000     1.340000000
C    -6.239000000    -4.030000000     3.001000000
H    -6.421000000    -5.083000000     2.798000000
C    -6.105000000    -3.588000000     4.282000000
H    -6.224000000    -4.285000000     5.108000000
C    -5.884000000    -2.259000000     4.515000000
H    -6.030000000    -1.942000000     5.545000000
C    -5.626000000    -1.373000000     3.451000000
O    -5.421000000    -0.015000000     3.682000000
C    -4.220000000     0.478000000     3.994000000
C    -4.111000000     1.753000000     4.407000000
H    -5.030000000     2.328000000     4.485000000
C    -2.891000000     2.437000000     4.606000000
O    -2.873000000     3.720000000     5.167000000
C    -1.931000000     4.713000000     4.971000000
C    -1.469000000     5.556000000     5.990000000
H    -1.743000000     5.440000000     7.036000000
C    -0.615000000     6.626000000     5.693000000
H    -0.310000000     7.402000000     6.390000000
C    -0.248000000     6.904000000     4.387000000
H     0.400000000     7.717000000     4.069000000
C    -0.654000000     6.045000000     3.401000000
C    -1.604000000     5.085000000     3.663000000
H    -2.011000000     4.495000000     2.846000000
C    -2.576000000    -0.360000000    -0.541000000
H    -3.414000000    -0.848000000    -0.049000000
C    -1.317000000    -0.420000000    -0.025000000
H    -1.131000000    -1.037000000     0.851000000
C    -0.190000000     0.234000000    -0.519000000
H     0.835000000     0.046000000    -0.141000000
C    -0.453000000     1.087000000    -1.657000000
H     0.368000000     1.624000000    -2.125000000
C    -1.746000000     1.064000000    -2.226000000
H    -1.901000000     1.729000000    -3.072000000
C    -2.785000000     0.387000000    -1.665000000
C    -4.142000000     0.440000000    -2.210000000
O    -4.356000000     0.923000000    -3.287000000
O    -5.071000000     0.059000000    -1.504000000
O    -2.472000000     4.651000000    -0.987000000
H    -3.225000000     4.654000000    -0.396000000
H    -2.161000000     3.746000000    -0.975000000
O    -2.273000000     3.607000000    -6.543000000
H    -2.332000000     3.944000000    -7.437000000
H    -1.497000000     4.034000000    -6.177000000
O    -6.927000000    -0.183000000    -4.290000000
H    -6.870000000     0.125000000    -5.195000000
H    -6.027000000    -0.141000000    -3.966000000
O    -7.875000000     1.255000000    -6.882000000
H    -8.460000000     1.676000000    -6.253000000
H    -8.452000000     0.712000000    -7.419000000
O    -1.897000000     6.442000000    -2.930000000
H    -2.117000000     5.794000000    -2.261000000
H    -0.967000000     6.301000000    -3.104000000
O    -6.576000000     3.881000000    -6.873000000
H    -7.031000000     3.039000000    -6.862000000
H    -5.944000000     3.821000000    -6.157000000
O    -4.925000000     4.985000000     0.678000000
H    -5.748000000     5.343000000     0.344000000
H    -4.925000000     5.212000000     1.608000000
O    -6.015000000    -5.997000000    -3.958000000
H    -5.811000000    -5.089000000    -4.183000000
H    -6.934000000    -5.976000000    -3.690000000
O    -5.732000000     1.582000000     0.541000000
H    -5.519000000     0.913000000    -0.111000000
H    -4.974000000     2.166000000     0.539000000
O    -4.509000000     3.189000000    -4.852000000
H    -4.468000000     2.253000000    -4.658000000
H    -3.714000000     3.364000000    -5.356000000
O    -6.392000000     2.920000000    -2.754000000
H    -5.990000000     3.338000000    -3.516000000
H    -5.921000000     2.092000000    -2.659000000
O    -8.842000000    -2.200000000     0.495000000
H    -8.307000000    -2.950000000     0.755000000
H    -8.279000000    -1.695000000    -0.091000000
O    -7.726000000     1.552000000     2.801000000
H    -8.059000000     1.810000000     1.942000000
H    -6.798000000     1.369000000     2.653000000
O    -8.335000000     2.701000000     0.297000000
H    -8.660000000     2.877000000    -0.586000000
H    -7.444000000     2.378000000     0.165000000
O    -8.842000000    -2.263000000    -4.947000000
H    -8.478000000    -3.006000000    -5.428000000
H    -8.120000000    -1.636000000    -4.891000000
O    -5.249000000     6.378000000    -4.447000000
H    -4.673000000     5.650000000    -4.212000000
H    -5.027000000     6.576000000    -5.357000000
O    -9.321000000     2.669000000    -4.717000000
H    -9.187000000     3.022000000    -3.837000000
H    -9.606000000     1.767000000    -4.571000000
O    -8.866000000     3.554000000    -2.171000000
H    -8.019000000     3.339000000    -2.561000000
H    -8.864000000     4.509000000    -2.104000000
O    -7.583000000    -0.602000000    -1.426000000
H    -7.557000000    -0.042000000    -2.201000000
H    -6.698000000    -0.555000000    -1.065000000
