215
-1414.15276
C    -3.301000000     1.566000000    -4.314000000
H    -3.257000000     0.490000000    -4.461000000
C    -2.097000000     2.238000000    -4.353000000
C    -2.195000000     3.590000000    -4.082000000
H    -1.320000000     4.235000000    -4.091000000
C    -0.827000000     1.494000000    -4.217000000
O    -0.693000000     0.426000000    -5.187000000
H    -0.818000000     1.101000000    -3.189000000
O     0.333000000     2.391000000    -4.342000000
C     1.479000000     2.211000000    -3.691000000
C     1.620000000     3.024000000    -2.593000000
H     0.894000000     3.811000000    -2.401000000
C     2.790000000     3.034000000    -1.856000000
O     2.758000000     3.850000000    -0.773000000
C     3.862000000     2.219000000    -2.230000000
C     5.033000000     2.207000000    -1.317000000
H     5.855000000     1.785000000    -1.899000000
C     4.738000000     1.241000000    -0.165000000
C     4.974000000    -0.117000000    -0.304000000
H     5.201000000    -0.542000000    -1.278000000
H     5.272000000     3.214000000    -0.969000000
C     3.672000000     1.455000000    -3.389000000
H     4.540000000     0.916000000    -3.760000000
C     2.491000000     1.344000000    -4.039000000
C     2.183000000     0.316000000    -5.192000000
H     3.142000000    -0.016000000    -5.595000000
H     1.759000000     0.842000000    -6.050000000
C     1.332000000    -0.815000000    -4.741000000
C     2.028000000    -1.939000000    -4.274000000
H     3.114000000    -1.978000000    -4.304000000
C    -0.073000000    -0.744000000    -4.764000000
C    -0.774000000    -1.752000000    -4.114000000
H    -1.857000000    -1.679000000    -4.055000000
C    -0.128000000    -2.838000000    -3.514000000
O    -0.866000000    -3.806000000    -2.814000000
C    -0.936000000    -3.746000000    -1.346000000
C    -2.349000000    -3.964000000    -0.862000000
C    -2.648000000    -4.725000000     0.273000000
H    -1.808000000    -5.246000000     0.726000000
C    -3.446000000    -3.266000000    -1.451000000
H    -3.215000000    -2.687000000    -2.341000000
O    -0.051000000    -4.723000000    -0.813000000
H    -0.645000000    -2.776000000    -0.917000000
C     1.263000000    -2.922000000    -3.689000000
C     1.886000000    -4.174000000    -3.046000000
H     2.812000000    -4.337000000    -3.601000000
H     1.413000000    -5.139000000    -3.236000000
C     2.141000000    -3.957000000    -1.545000000
C     3.377000000    -3.415000000    -1.132000000
H     4.055000000    -3.064000000    -1.905000000
C     1.263000000    -4.412000000    -0.554000000
C     1.601000000    -4.236000000     0.754000000
H     0.838000000    -4.345000000     1.522000000
C     2.780000000    -3.650000000     1.128000000
O     2.840000000    -3.380000000     2.491000000
C     2.611000000    -1.999000000     2.941000000
C     1.713000000    -1.899000000     4.189000000
C     0.558000000    -2.644000000     4.301000000
H     0.339000000    -3.445000000     3.600000000
C     1.899000000    -0.878000000     5.145000000
H     2.798000000    -0.279000000     5.026000000
O     3.872000000    -1.316000000     3.056000000
H     1.971000000    -1.568000000     2.157000000
C     3.592000000    -3.084000000     0.199000000
C     4.956000000    -2.524000000     0.638000000
H     5.761000000    -2.648000000    -0.089000000
H     5.254000000    -3.045000000     1.550000000
C     4.769000000    -0.982000000     0.815000000
C     4.274000000    -0.505000000     2.017000000
C     3.973000000     0.842000000     2.148000000
H     3.615000000     1.272000000     3.080000000
C     4.193000000     1.699000000     1.070000000
O     3.756000000     2.981000000     1.219000000
C     2.511000000     3.193000000     0.519000000
H     1.898000000     2.310000000     0.284000000
C     1.460000000     3.889000000     1.444000000
C     0.312000000     4.362000000     0.784000000
H     0.031000000     4.095000000    -0.232000000
C     1.526000000     3.931000000     2.809000000
H     2.336000000     3.363000000     3.259000000
C     0.635000000     4.616000000     3.587000000
O     0.652000000     4.511000000     4.988000000
C    -0.520000000     5.002000000     2.977000000
H    -1.350000000     5.424000000     3.538000000
C    -0.677000000     4.867000000     1.636000000
O    -1.859000000     5.258000000     1.166000000
C    -1.954000000     5.902000000    -0.089000000
C    -2.790000000     5.447000000    -1.110000000
H    -3.297000000     4.499000000    -0.955000000
C    -1.116000000     6.974000000    -0.224000000
H    -0.527000000     7.357000000     0.605000000
C    -1.124000000     7.633000000    -1.473000000
H    -0.607000000     8.588000000    -1.509000000
C    -1.933000000     7.191000000    -2.539000000
H    -1.985000000     7.704000000    -3.496000000
C    -2.743000000     6.096000000    -2.343000000
O    -3.416000000     5.566000000    -3.478000000
C    -3.456000000     4.190000000    -3.806000000
C    -4.611000000     3.434000000    -3.983000000
H    -5.565000000     3.873000000    -3.704000000
C    -4.561000000     2.088000000    -4.154000000
O    -5.727000000     1.359000000    -4.353000000
C    -5.816000000    -0.021000000    -4.113000000
C    -5.762000000    -0.576000000    -2.796000000
H    -5.697000000     0.141000000    -1.981000000
C    -5.783000000    -0.893000000    -5.198000000
H    -5.647000000    -0.539000000    -6.217000000
C    -5.704000000    -2.258000000    -5.058000000
H    -5.672000000    -2.935000000    -5.908000000
C    -5.777000000    -2.768000000    -3.760000000
H    -5.847000000    -3.842000000    -3.605000000
C    -5.708000000    -1.961000000    -2.620000000
O    -5.665000000    -2.494000000    -1.335000000
C    -4.643000000    -3.239000000    -0.831000000
C    -4.818000000    -3.979000000     0.326000000
H    -5.829000000    -3.953000000     0.723000000
C    -3.867000000    -4.804000000     0.913000000
O    -4.015000000    -5.605000000     2.036000000
C    -3.129000000    -5.533000000     3.066000000
C    -2.725000000    -4.351000000     3.615000000
H    -3.159000000    -3.423000000     3.250000000
C    -2.585000000    -6.754000000     3.500000000
H    -2.926000000    -7.697000000     3.080000000
C    -1.689000000    -6.702000000     4.553000000
H    -1.272000000    -7.602000000     4.997000000
C    -1.320000000    -5.447000000     5.164000000
H    -0.587000000    -5.443000000     5.967000000
C    -1.917000000    -4.274000000     4.764000000
O    -1.584000000    -3.117000000     5.364000000
C    -0.317000000    -2.451000000     5.341000000
C    -0.107000000    -1.460000000     6.281000000
H    -0.731000000    -1.254000000     7.147000000
C     1.011000000    -0.670000000     6.167000000
O     1.243000000     0.302000000     7.136000000
C     1.733000000     1.506000000     6.709000000
C     3.052000000     1.852000000     7.095000000
H     3.677000000     1.223000000     7.724000000
C     3.524000000     3.106000000     6.834000000
H     4.534000000     3.385000000     7.126000000
C     2.734000000     4.000000000     6.077000000
H     3.133000000     4.928000000     5.676000000
C     1.442000000     3.654000000     5.705000000
C     0.907000000     2.406000000     6.022000000
H    -0.121000000     2.252000000     5.704000000
C    -2.819000000    -0.635000000     0.942000000
H    -3.593000000    -1.265000000     1.372000000
C    -1.467000000    -1.045000000     1.062000000
H    -1.233000000    -2.001000000     1.522000000
C    -0.487000000    -0.187000000     0.509000000
H     0.551000000    -0.498000000     0.658000000
C    -0.860000000     1.009000000    -0.154000000
H    -0.122000000     1.608000000    -0.682000000
C    -2.205000000     1.424000000    -0.155000000
H    -2.453000000     2.404000000    -0.555000000
C    -3.187000000     0.592000000     0.430000000
C    -4.677000000     1.004000000     0.474000000
O    -5.001000000     2.084000000     0.185000000
O    -5.422000000     0.428000000     1.221000000
O    -6.871000000    -1.776000000     3.650000000
H    -7.100000000    -0.898000000     3.955000000
H    -6.849000000    -1.701000000     2.696000000
O    -8.892000000    -4.325000000     0.601000000
H    -8.665000000    -3.423000000     0.826000000
H    -8.808000000    -4.806000000     1.424000000
O    -4.675000000    -1.531000000     6.228000000
H    -5.514000000    -1.309000000     5.826000000
H    -4.126000000    -0.761000000     6.078000000
O    -9.862000000    -1.258000000     3.752000000
H   -10.130000000    -2.169000000     3.630000000
H    -9.479000000    -1.006000000     2.911000000
O    -8.614000000    -2.974000000    -2.186000000
H    -8.024000000    -2.322000000    -1.807000000
H    -8.155000000    -3.806000000    -2.073000000
O    -3.626000000     4.100000000     6.377000000
H    -3.752000000     4.524000000     5.528000000
H    -2.898000000     4.577000000     6.776000000
O    -8.059000000     5.174000000    -2.352000000
H    -8.290000000     4.968000000    -1.446000000
H    -8.008000000     4.323000000    -2.786000000
O    -7.836000000     1.400000000     1.447000000
H    -7.975000000     1.137000000     2.357000000
H    -6.895000000     1.298000000     1.310000000
O    -8.429000000    -1.738000000     0.774000000
H    -9.211000000    -1.209000000     0.616000000
H    -7.704000000    -1.115000000     0.721000000
O    -4.607000000     4.103000000     1.715000000
H    -3.741000000     4.440000000     1.488000000
H    -4.762000000     3.399000000     1.084000000
O    -7.403000000     3.761000000    -0.053000000
H    -6.892000000     3.068000000    -0.470000000
H    -7.538000000     3.454000000     0.843000000
O    -9.039000000     4.796000000     4.001000000
H    -9.387000000     5.658000000     4.230000000
H    -8.228000000     4.983000000     3.527000000
O    -3.991000000     5.491000000     3.905000000
H    -4.385000000     6.336000000     3.689000000
H    -4.497000000     4.855000000     3.400000000
O    -7.193000000     6.799000000     1.967000000
H    -6.944000000     6.225000000     1.243000000
H    -7.991000000     7.232000000     1.666000000
O    -3.502000000     1.204000000     6.203000000
H    -3.643000000     2.139000000     6.351000000
H    -3.751000000     1.065000000     5.290000000
O    -7.254000000     0.755000000     4.046000000
H    -6.599000000     1.452000000     4.008000000
H    -7.678000000     0.872000000     4.896000000
O   -10.414000000     1.736000000     2.067000000
H    -9.621000000     1.422000000     1.632000000
H   -10.179000000     2.604000000     2.395000000
O    -8.409000000     2.543000000    -3.635000000
H    -8.827000000     1.898000000    -4.206000000
H    -7.519000000     2.212000000    -3.511000000
O    -4.453000000     1.485000000     3.561000000
H    -4.789000000     0.742000000     3.059000000
H    -4.484000000     2.221000000     2.950000000
