215
-1459.95753
C     0.468000000    -0.685000000    -5.200000000
H     0.109000000    -1.603000000    -4.742000000
C     1.614000000    -0.072000000    -4.700000000
C     1.953000000     1.234000000    -5.146000000
H     2.800000000     1.727000000    -4.675000000
C     2.394000000    -0.730000000    -3.527000000
O     2.548000000    -2.125000000    -3.614000000
H     1.872000000    -0.514000000    -2.583000000
O     3.709000000    -0.106000000    -3.370000000
C     4.303000000     0.126000000    -2.189000000
C     4.216000000     1.403000000    -1.712000000
H     3.850000000     2.230000000    -2.314000000
C     4.416000000     1.648000000    -0.360000000
O     3.940000000     2.839000000     0.166000000
C     4.902000000     0.721000000     0.508000000
C     5.077000000     1.039000000     2.017000000
H     5.781000000     0.310000000     2.424000000
C     3.766000000     0.923000000     2.812000000
C     3.506000000    -0.246000000     3.459000000
H     4.236000000    -1.038000000     3.315000000
H     5.444000000     2.065000000     2.085000000
C     5.070000000    -0.569000000    -0.008000000
H     5.400000000    -1.383000000     0.632000000
C     4.756000000    -0.914000000    -1.309000000
C     4.842000000    -2.395000000    -1.678000000
H     5.477000000    -2.928000000    -0.968000000
H     5.279000000    -2.452000000    -2.677000000
C     3.457000000    -3.095000000    -1.621000000
C     3.174000000    -3.787000000    -0.467000000
H     3.898000000    -3.851000000     0.341000000
C     2.447000000    -2.901000000    -2.541000000
C     1.204000000    -3.573000000    -2.360000000
H     0.426000000    -3.526000000    -3.118000000
C     0.969000000    -4.271000000    -1.161000000
O    -0.254000000    -4.867000000    -0.972000000
C    -1.091000000    -3.971000000    -0.173000000
C    -2.485000000    -3.767000000    -0.588000000
C    -3.606000000    -3.679000000     0.305000000
H    -3.455000000    -3.752000000     1.379000000
C    -2.749000000    -3.538000000    -1.960000000
H    -1.933000000    -3.588000000    -2.677000000
O    -1.141000000    -4.613000000     1.120000000
H    -0.563000000    -3.012000000    -0.069000000
C     1.943000000    -4.361000000    -0.168000000
C     1.694000000    -5.103000000     1.104000000
H     2.682000000    -5.386000000     1.474000000
H     1.176000000    -6.056000000     0.974000000
C     1.018000000    -4.204000000     2.172000000
C     1.822000000    -3.601000000     3.103000000
H     2.904000000    -3.703000000     3.083000000
C    -0.407000000    -4.136000000     2.175000000
C    -0.915000000    -3.257000000     3.069000000
H    -1.983000000    -3.171000000     2.886000000
C    -0.155000000    -2.536000000     3.968000000
O    -0.839000000    -1.606000000     4.669000000
C    -0.851000000    -0.242000000     4.110000000
C    -2.182000000     0.389000000     4.234000000
C    -3.323000000    -0.406000000     4.415000000
H    -3.336000000    -1.485000000     4.280000000
C    -2.268000000     1.766000000     4.016000000
H    -1.316000000     2.283000000     3.920000000
O     0.166000000     0.436000000     4.819000000
H    -0.653000000    -0.325000000     3.032000000
C     1.260000000    -2.649000000     3.985000000
C     2.174000000    -1.801000000     4.908000000
H     3.133000000    -2.303000000     5.056000000
H     1.676000000    -1.536000000     5.843000000
C     2.348000000    -0.467000000     4.239000000
C     1.407000000     0.591000000     4.294000000
C     1.706000000     1.844000000     3.782000000
H     0.979000000     2.638000000     3.933000000
C     2.814000000     1.973000000     2.981000000
O     3.060000000     3.086000000     2.279000000
C     2.727000000     2.950000000     0.884000000
H     2.132000000     2.047000000     0.683000000
C     1.923000000     4.067000000     0.345000000
C     1.917000000     4.425000000    -1.016000000
H     2.498000000     3.733000000    -1.620000000
C     0.996000000     4.798000000     1.180000000
H     0.863000000     4.415000000     2.189000000
C     0.282000000     5.872000000     0.786000000
O    -0.577000000     6.579000000     1.659000000
C     0.215000000     6.154000000    -0.605000000
H    -0.476000000     6.869000000    -1.043000000
C     1.013000000     5.426000000    -1.436000000
O     0.773000000     5.639000000    -2.790000000
C     1.615000000     5.278000000    -3.842000000
C     1.157000000     4.357000000    -4.772000000
H     0.234000000     3.834000000    -4.536000000
C     2.691000000     6.059000000    -4.114000000
H     3.009000000     6.722000000    -3.314000000
C     3.518000000     5.814000000    -5.247000000
H     4.360000000     6.393000000    -5.616000000
C     3.038000000     4.872000000    -6.172000000
H     3.613000000     4.607000000    -7.056000000
C     1.833000000     4.194000000    -5.970000000
O     1.467000000     3.077000000    -6.712000000
C     1.170000000     1.816000000    -6.177000000
C     0.113000000     1.102000000    -6.731000000
H    -0.437000000     1.629000000    -7.506000000
C    -0.262000000    -0.101000000    -6.202000000
O    -1.373000000    -0.727000000    -6.684000000
C    -1.786000000    -1.913000000    -6.183000000
C    -2.719000000    -1.859000000    -5.163000000
H    -3.044000000    -0.880000000    -4.820000000
C    -1.481000000    -3.107000000    -6.864000000
H    -0.714000000    -3.067000000    -7.632000000
C    -2.172000000    -4.274000000    -6.478000000
H    -1.933000000    -5.194000000    -7.005000000
C    -3.093000000    -4.238000000    -5.439000000
H    -3.607000000    -5.159000000    -5.176000000
C    -3.394000000    -3.009000000    -4.756000000
O    -4.337000000    -2.966000000    -3.774000000
C    -4.035000000    -3.181000000    -2.443000000
C    -5.113000000    -3.024000000    -1.568000000
H    -6.089000000    -2.681000000    -1.901000000
C    -4.862000000    -3.263000000    -0.182000000
O    -5.968000000    -3.179000000     0.713000000
C    -5.915000000    -3.023000000     2.073000000
C    -5.732000000    -1.797000000     2.653000000
H    -5.589000000    -0.869000000     2.105000000
C    -6.353000000    -4.101000000     2.849000000
H    -6.613000000    -4.980000000     2.265000000
C    -6.460000000    -4.017000000     4.242000000
H    -6.822000000    -4.896000000     4.771000000
C    -6.256000000    -2.779000000     4.820000000
H    -6.459000000    -2.600000000     5.873000000
C    -5.825000000    -1.666000000     4.055000000
O    -5.716000000    -0.456000000     4.747000000
C    -4.570000000     0.242000000     4.539000000
C    -4.657000000     1.616000000     4.530000000
H    -5.600000000     2.156000000     4.569000000
C    -3.485000000     2.404000000     4.245000000
O    -3.570000000     3.804000000     4.133000000
C    -2.416000000     4.607000000     4.120000000
C    -1.712000000     4.870000000     5.307000000
H    -2.046000000     4.435000000     6.245000000
C    -0.605000000     5.694000000     5.245000000
H    -0.043000000     5.863000000     6.160000000
C    -0.211000000     6.270000000     4.016000000
H     0.674000000     6.900000000     3.964000000
C    -0.933000000     6.037000000     2.888000000
C    -1.948000000     5.121000000     2.902000000
H    -2.534000000     4.879000000     2.020000000
C    -2.569000000     0.241000000    -0.667000000
H    -3.653000000     0.303000000    -0.712000000
C    -1.955000000    -0.250000000     0.496000000
H    -2.465000000    -0.632000000     1.376000000
C    -0.576000000    -0.131000000     0.507000000
H     0.108000000    -0.401000000     1.301000000
C     0.094000000     0.323000000    -0.658000000
H     1.179000000     0.266000000    -0.605000000
C    -0.512000000     0.856000000    -1.760000000
H    -0.023000000     1.356000000    -2.592000000
C    -1.903000000     0.781000000    -1.792000000
C    -2.709000000     1.485000000    -2.930000000
O    -2.169000000     2.208000000    -3.720000000
O    -3.942000000     1.594000000    -2.920000000
O    -1.985000000     4.827000000    -3.496000000
H    -1.289000000     5.019000000    -2.868000000
H    -2.088000000     3.876000000    -3.454000000
O    -5.973000000     7.054000000    -4.182000000
H    -5.592000000     6.177000000    -4.204000000
H    -5.443000000     7.530000000    -3.543000000
O    -4.408000000     1.461000000    -5.552000000
H    -4.018000000     2.230000000    -5.968000000
H    -4.247000000     1.588000000    -4.617000000
O    -3.341000000     7.035000000    -2.722000000
H    -2.841000000     6.417000000    -3.255000000
H    -2.677000000     7.563000000    -2.280000000
O    -3.516000000     6.528000000     0.309000000
H    -3.326000000     7.456000000     0.170000000
H    -3.341000000     6.118000000    -0.537000000
O    -5.457000000     5.604000000    -2.071000000
H    -5.237000000     4.801000000    -2.543000000
H    -4.778000000     6.227000000    -2.330000000
O    -2.311000000     3.241000000    -6.100000000
H    -2.224000000     2.757000000    -5.278000000
H    -1.748000000     4.006000000    -5.988000000
O    -5.094000000     4.060000000    -4.033000000
H    -5.774000000     3.467000000    -4.354000000
H    -4.366000000     3.484000000    -3.797000000
O    -8.417000000    -0.556000000    -0.525000000
H    -7.801000000    -0.502000000    -1.255000000
H    -8.271000000     0.250000000    -0.028000000
O    -7.421000000     1.249000000     1.216000000
H    -6.952000000     2.002000000     0.857000000
H    -7.474000000     1.425000000     2.156000000
O    -6.190000000     3.308000000    -0.121000000
H    -5.497000000     2.793000000    -0.533000000
H    -6.062000000     4.195000000    -0.457000000
O    -6.448000000    -0.045000000    -6.289000000
H    -5.981000000    -0.878000000    -6.358000000
H    -5.772000000     0.590000000    -6.053000000
O    -3.816000000     5.719000000    -6.599000000
H    -3.447000000     4.988000000    -6.104000000
H    -4.452000000     6.115000000    -6.003000000
O    -5.092000000    -2.488000000    -7.202000000
H    -5.698000000    -3.229000000    -7.191000000
H    -4.255000000    -2.859000000    -6.925000000
O    -3.853000000     0.287000000    -8.345000000
H    -4.051000000    -0.553000000    -7.930000000
H    -4.089000000     0.941000000    -7.686000000
O    -6.486000000     0.727000000    -2.302000000
H    -6.782000000     1.169000000    -3.097000000
H    -5.540000000     0.877000000    -2.282000000
O    -7.510000000     2.244000000    -4.618000000
H    -8.184000000     2.909000000    -4.763000000
H    -7.717000000     1.552000000    -5.246000000
O    -0.963000000     3.274000000    -9.463000000
H    -0.283000000     3.947000000    -9.475000000
H    -1.346000000     3.336000000    -8.588000000
O    -8.156000000    -2.620000000    -4.032000000
H    -7.406000000    -2.036000000    -4.146000000
H    -8.907000000    -2.106000000    -4.328000000
