215
-1460.13905
C    -0.137000000    -1.646000000    -4.425000000
H    -0.361000000    -2.510000000    -3.804000000
C     1.108000000    -1.053000000    -4.426000000
C     1.368000000     0.013000000    -5.289000000
H     2.272000000     0.614000000    -5.246000000
C     2.142000000    -1.428000000    -3.334000000
O     2.338000000    -2.899000000    -3.268000000
H     1.952000000    -1.062000000    -2.314000000
O     3.407000000    -0.860000000    -3.692000000
C     4.021000000    -0.324000000    -2.670000000
C     3.812000000     1.003000000    -2.484000000
H     3.243000000     1.521000000    -3.252000000
C     4.142000000     1.611000000    -1.310000000
O     3.591000000     2.901000000    -1.120000000
C     4.772000000     0.926000000    -0.289000000
C     5.105000000     1.616000000     1.031000000
H     5.991000000     1.244000000     1.549000000
C     3.968000000     1.582000000     2.056000000
C     3.822000000     0.539000000     3.034000000
H     4.510000000    -0.302000000     3.053000000
H     5.284000000     2.666000000     0.790000000
C     5.085000000    -0.437000000    -0.473000000
H     5.587000000    -1.067000000     0.257000000
C     4.656000000    -1.092000000    -1.624000000
C     4.738000000    -2.603000000    -1.714000000
H     5.638000000    -3.004000000    -1.244000000
H     4.806000000    -3.021000000    -2.721000000
C     3.463000000    -3.176000000    -1.144000000
C     3.418000000    -3.667000000     0.172000000
H     4.288000000    -3.500000000     0.803000000
C     2.367000000    -3.444000000    -1.977000000
C     1.279000000    -4.141000000    -1.486000000
H     0.385000000    -4.260000000    -2.092000000
C     1.156000000    -4.481000000    -0.149000000
O    -0.023000000    -5.037000000     0.262000000
C    -0.936000000    -4.141000000     0.972000000
C    -2.371000000    -4.364000000     0.603000000
C    -3.415000000    -3.924000000     1.432000000
H    -3.264000000    -3.480000000     2.413000000
C    -2.714000000    -4.709000000    -0.713000000
H    -1.932000000    -5.064000000    -1.380000000
O    -0.770000000    -4.315000000     2.413000000
H    -0.685000000    -3.111000000     0.679000000
C     2.273000000    -4.308000000     0.749000000
C     2.198000000    -4.644000000     2.200000000
H     3.259000000    -4.798000000     2.408000000
H     1.585000000    -5.535000000     2.352000000
C     1.510000000    -3.545000000     3.005000000
C     2.365000000    -2.699000000     3.778000000
H     3.445000000    -2.801000000     3.854000000
C     0.078000000    -3.405000000     3.030000000
C    -0.435000000    -2.367000000     3.824000000
H    -1.515000000    -2.246000000     3.804000000
C     0.432000000    -1.511000000     4.535000000
O    -0.215000000    -0.460000000     5.119000000
C    -0.283000000     0.721000000     4.350000000
C    -1.696000000     1.380000000     4.258000000
C    -2.825000000     0.590000000     4.650000000
H    -2.663000000    -0.392000000     5.087000000
C    -1.867000000     2.651000000     3.828000000
H    -1.085000000     3.353000000     3.550000000
O     0.736000000     1.683000000     4.733000000
H    -0.041000000     0.393000000     3.328000000
C     1.780000000    -1.613000000     4.472000000
C     2.693000000    -0.558000000     5.052000000
H     3.696000000    -0.948000000     5.236000000
H     2.325000000    -0.249000000     6.032000000
C     2.824000000     0.604000000     4.052000000
C     1.864000000     1.683000000     3.966000000
C     2.037000000     2.675000000     2.979000000
H     1.295000000     3.468000000     3.037000000
C     3.043000000     2.702000000     2.019000000
O     2.988000000     3.674000000     1.017000000
C     2.469000000     3.138000000    -0.253000000
H     1.895000000     2.201000000    -0.192000000
C     1.536000000     4.206000000    -0.847000000
C     1.254000000     4.253000000    -2.273000000
H     1.654000000     3.467000000    -2.909000000
C     0.857000000     5.079000000    -0.021000000
H     0.984000000     5.053000000     1.058000000
C    -0.047000000     6.003000000    -0.597000000
O    -0.578000000     6.964000000     0.246000000
C    -0.244000000     6.132000000    -1.937000000
H    -1.044000000     6.755000000    -2.329000000
C     0.483000000     5.317000000    -2.786000000
O     0.422000000     5.474000000    -4.180000000
C     1.022000000     4.699000000    -5.138000000
C     0.504000000     3.519000000    -5.552000000
H    -0.480000000     3.229000000    -5.195000000
C     2.306000000     5.064000000    -5.583000000
H     2.730000000     5.881000000    -5.005000000
C     3.035000000     4.337000000    -6.607000000
H     4.024000000     4.580000000    -6.984000000
C     2.403000000     3.192000000    -7.055000000
H     2.912000000     2.604000000    -7.814000000
C     1.209000000     2.732000000    -6.430000000
O     0.571000000     1.599000000    -6.923000000
C     0.330000000     0.531000000    -6.087000000
C    -0.910000000    -0.034000000    -6.045000000
H    -1.610000000     0.419000000    -6.742000000
C    -1.152000000    -1.182000000    -5.277000000
O    -2.444000000    -1.753000000    -5.393000000
C    -2.575000000    -3.028000000    -5.052000000
C    -3.257000000    -3.319000000    -3.843000000
H    -3.585000000    -2.514000000    -3.189000000
C    -2.016000000    -4.001000000    -5.864000000
H    -1.502000000    -3.723000000    -6.781000000
C    -2.300000000    -5.352000000    -5.544000000
H    -1.941000000    -6.104000000    -6.243000000
C    -3.128000000    -5.686000000    -4.461000000
H    -3.268000000    -6.738000000    -4.226000000
C    -3.531000000    -4.675000000    -3.585000000
O    -4.387000000    -4.964000000    -2.490000000
C    -3.990000000    -4.704000000    -1.212000000
C    -5.052000000    -4.217000000    -0.380000000
H    -6.085000000    -4.136000000    -0.707000000
C    -4.749000000    -3.795000000     0.889000000
O    -5.652000000    -2.990000000     1.502000000
C    -5.647000000    -2.664000000     2.825000000
C    -5.411000000    -1.343000000     3.168000000
H    -5.308000000    -0.566000000     2.414000000
C    -5.728000000    -3.595000000     3.878000000
H    -5.834000000    -4.655000000     3.659000000
C    -5.846000000    -3.225000000     5.177000000
H    -6.175000000    -3.844000000     6.008000000
C    -5.637000000    -1.901000000     5.499000000
H    -5.548000000    -1.579000000     6.533000000
C    -5.310000000    -0.976000000     4.534000000
O    -5.261000000     0.379000000     4.754000000
C    -4.143000000     1.134000000     4.384000000
C    -4.297000000     2.444000000     3.938000000
H    -5.310000000     2.825000000     3.837000000
C    -3.134000000     3.186000000     3.690000000
O    -3.415000000     4.534000000     3.378000000
C    -2.383000000     5.453000000     3.077000000
C    -1.656000000     6.095000000     4.139000000
H    -1.759000000     5.756000000     5.166000000
C    -0.642000000     7.032000000     3.875000000
H     0.000000000     7.351000000     4.692000000
C    -0.294000000     7.230000000     2.574000000
H     0.593000000     7.808000000     2.330000000
C    -1.047000000     6.672000000     1.529000000
C    -2.145000000     5.875000000     1.795000000
H    -2.707000000     5.456000000     0.964000000
C    -2.905000000    -0.150000000    -1.525000000
H    -3.969000000    -0.343000000    -1.638000000
C    -2.083000000    -0.732000000    -0.523000000
H    -2.538000000    -1.389000000     0.214000000
C    -0.702000000    -0.390000000    -0.379000000
H    -0.091000000    -0.888000000     0.304000000
C    -0.212000000     0.607000000    -1.192000000
H     0.844000000     0.843000000    -1.089000000
C    -0.984000000     1.204000000    -2.166000000
H    -0.484000000     1.813000000    -2.915000000
C    -2.340000000     0.792000000    -2.345000000
C    -3.183000000     1.469000000    -3.417000000
O    -2.749000000     2.376000000    -4.082000000
O    -4.255000000     0.955000000    -3.774000000
O    -2.467000000     4.209000000    -2.050000000
H    -1.731000000     3.861000000    -1.546000000
H    -2.205000000     4.097000000    -2.964000000
O    -5.149000000     7.355000000    -6.461000000
H    -6.105000000     7.387000000    -6.488000000
H    -4.949000000     6.590000000    -5.922000000
O    -5.434000000    -0.929000000    -5.150000000
H    -4.956000000    -0.282000000    -4.631000000
H    -4.753000000    -1.497000000    -5.510000000
O    -6.782000000     5.585000000    -4.293000000
H    -6.311000000     4.777000000    -4.091000000
H    -7.373000000     5.710000000    -3.551000000
O    -5.656000000     4.293000000    -7.467000000
H    -4.860000000     3.842000000    -7.185000000
H    -5.363000000     4.885000000    -8.160000000
O    -4.684000000     5.559000000    -0.655000000
H    -4.087000000     4.914000000    -1.034000000
H    -4.578000000     6.335000000    -1.204000000
O    -3.510000000     2.816000000    -6.545000000
H    -3.304000000     2.609000000    -5.634000000
H    -2.770000000     3.345000000    -6.845000000
O    -5.905000000     2.973000000    -4.822000000
H    -5.196000000     2.482000000    -4.406000000
H    -5.747000000     2.873000000    -5.761000000
O    -8.216000000    -0.763000000    -5.370000000
H    -8.038000000    -1.295000000    -4.594000000
H    -7.791000000     0.075000000    -5.189000000
O    -7.275000000     0.361000000     0.058000000
H    -6.864000000     0.336000000    -0.806000000
H    -7.628000000     1.248000000     0.130000000
O    -8.437000000     3.206000000    -0.444000000
H    -9.280000000     3.325000000    -0.882000000
H    -7.798000000     3.192000000    -1.156000000
O    -7.054000000    -2.777000000    -3.661000000
H    -6.879000000    -3.475000000    -4.292000000
H    -6.394000000    -2.111000000    -3.851000000
O    -6.023000000     0.328000000    -7.457000000
H    -6.199000000     0.291000000    -6.517000000
H    -5.518000000    -0.465000000    -7.637000000
O    -1.585000000     5.899000000    -6.572000000
H    -1.076000000     5.313000000    -7.132000000
H    -1.565000000     5.483000000    -5.710000000
O    -5.688000000     4.511000000     1.558000000
H    -5.347000000     4.783000000     0.706000000
H    -4.911000000     4.421000000     2.109000000
O    -6.655000000     0.526000000    -2.562000000
H    -7.091000000     1.365000000    -2.710000000
H    -5.786000000     0.636000000    -2.949000000
O    -7.979000000     3.245000000    -3.173000000
H    -7.339000000     3.606000000    -3.787000000
H    -8.812000000     3.287000000    -3.643000000
O    -2.674000000     1.915000000    -8.939000000
H    -3.083000000     2.205000000    -8.124000000
H    -3.187000000     2.338000000    -9.628000000
O    -9.036000000    -1.261000000    -2.418000000
H    -8.091000000    -1.303000000    -2.271000000
H    -9.175000000    -1.763000000    -3.222000000
