215
-1435.09607
C    -1.688000000    -2.063000000    -4.166000000
H    -1.815000000    -2.941000000    -3.539000000
C    -0.444000000    -1.444000000    -4.206000000
C    -0.312000000    -0.225000000    -4.843000000
H     0.635000000     0.304000000    -4.896000000
C     0.771000000    -2.005000000    -3.402000000
O     0.782000000    -3.452000000    -3.296000000
H     0.805000000    -1.397000000    -2.485000000
O     2.037000000    -1.613000000    -4.030000000
C     3.046000000    -1.150000000    -3.328000000
C     3.147000000     0.184000000    -3.399000000
H     2.423000000     0.804000000    -3.922000000
C     3.956000000     0.845000000    -2.464000000
O     3.873000000     2.258000000    -2.418000000
C     4.723000000     0.125000000    -1.517000000
C     5.487000000     0.890000000    -0.477000000
H     6.411000000     0.357000000    -0.245000000
C     4.722000000     1.167000000     0.811000000
C     4.529000000     0.181000000     1.781000000
H     4.910000000    -0.823000000     1.613000000
H     5.818000000     1.854000000    -0.867000000
C     4.677000000    -1.238000000    -1.565000000
H     5.171000000    -1.752000000    -0.744000000
C     3.806000000    -1.944000000    -2.448000000
C     3.586000000    -3.346000000    -2.401000000
H     4.439000000    -3.901000000    -2.004000000
H     3.365000000    -3.722000000    -3.402000000
C     2.423000000    -3.847000000    -1.560000000
C     2.631000000    -4.239000000    -0.270000000
H     3.599000000    -4.233000000     0.224000000
C     1.135000000    -3.890000000    -2.009000000
C     0.071000000    -4.258000000    -1.246000000
H    -0.954000000    -4.304000000    -1.605000000
C     0.286000000    -4.655000000     0.085000000
O    -0.816000000    -4.822000000     0.902000000
C    -1.282000000    -3.721000000     1.691000000
C    -2.836000000    -3.748000000     1.776000000
C    -3.460000000    -3.232000000     2.922000000
H    -2.913000000    -3.154000000     3.858000000
C    -3.607000000    -3.967000000     0.598000000
H    -3.074000000    -4.467000000    -0.207000000
O    -0.778000000    -3.858000000     3.038000000
H    -0.918000000    -2.748000000     1.330000000
C     1.603000000    -4.598000000     0.563000000
C     1.880000000    -4.829000000     2.105000000
H     2.859000000    -5.233000000     2.367000000
H     1.180000000    -5.620000000     2.383000000
C     1.681000000    -3.623000000     2.913000000
C     2.786000000    -2.829000000     3.211000000
H     3.785000000    -3.230000000     3.059000000
C     0.380000000    -3.230000000     3.384000000
C     0.193000000    -2.100000000     4.118000000
H    -0.781000000    -1.872000000     4.545000000
C     1.298000000    -1.365000000     4.445000000
O     1.120000000    -0.050000000     4.919000000
C     1.016000000     1.093000000     4.029000000
C    -0.165000000     1.863000000     4.347000000
C    -1.151000000     1.308000000     5.178000000
H    -1.054000000     0.333000000     5.649000000
C    -0.395000000     3.057000000     3.624000000
H     0.444000000     3.470000000     3.069000000
O     2.207000000     1.866000000     4.110000000
H     0.862000000     0.776000000     2.987000000
C     2.529000000    -1.640000000     3.886000000
C     3.731000000    -0.724000000     4.033000000
H     4.703000000    -1.221000000     3.996000000
H     3.705000000    -0.288000000     5.034000000
C     3.784000000     0.392000000     2.965000000
C     3.151000000     1.649000000     3.146000000
C     3.298000000     2.583000000     2.110000000
H     2.696000000     3.484000000     2.198000000
C     4.021000000     2.326000000     0.942000000
O     3.878000000     3.266000000    -0.111000000
C     3.084000000     2.898000000    -1.358000000
H     2.311000000     2.135000000    -1.181000000
C     2.362000000     4.093000000    -1.964000000
C     2.130000000     4.240000000    -3.321000000
H     2.669000000     3.594000000    -4.009000000
C     1.588000000     4.928000000    -1.100000000
H     1.859000000     4.951000000    -0.048000000
C     0.964000000     6.029000000    -1.579000000
O     0.342000000     6.927000000    -0.744000000
C     0.782000000     6.198000000    -2.962000000
H     0.253000000     7.066000000    -3.347000000
C     1.400000000     5.329000000    -3.816000000
O     1.085000000     5.412000000    -5.130000000
C     0.887000000     4.197000000    -5.955000000
C    -0.035000000     3.313000000    -5.551000000
H    -0.510000000     3.394000000    -4.577000000
C     1.482000000     4.061000000    -7.216000000
H     2.152000000     4.818000000    -7.615000000
C     0.889000000     3.124000000    -8.066000000
H     1.046000000     3.052000000    -9.139000000
C    -0.088000000     2.204000000    -7.685000000
H    -0.587000000     1.497000000    -8.343000000
C    -0.472000000     2.293000000    -6.352000000
O    -1.531000000     1.581000000    -6.000000000
C    -1.492000000     0.355000000    -5.416000000
C    -2.762000000    -0.248000000    -5.307000000
H    -3.702000000     0.148000000    -5.683000000
C    -2.830000000    -1.409000000    -4.679000000
O    -4.055000000    -1.972000000    -4.548000000
C    -4.356000000    -3.147000000    -3.831000000
C    -4.737000000    -3.095000000    -2.483000000
H    -4.789000000    -2.178000000    -1.901000000
C    -4.364000000    -4.317000000    -4.489000000
H    -3.939000000    -4.409000000    -5.485000000
C    -4.716000000    -5.504000000    -3.861000000
H    -4.681000000    -6.445000000    -4.405000000
C    -5.111000000    -5.487000000    -2.538000000
H    -5.251000000    -6.416000000    -1.992000000
C    -5.180000000    -4.231000000    -1.839000000
O    -5.670000000    -4.187000000    -0.522000000
C    -4.965000000    -3.801000000     0.578000000
C    -5.546000000    -3.141000000     1.669000000
H    -6.620000000    -2.978000000     1.633000000
C    -4.816000000    -2.919000000     2.827000000
O    -5.529000000    -2.347000000     3.873000000
C    -4.783000000    -1.750000000     4.845000000
C    -4.526000000    -0.377000000     4.838000000
H    -4.976000000     0.266000000     4.087000000
C    -4.340000000    -2.546000000     5.924000000
H    -4.575000000    -3.607000000     5.886000000
C    -3.524000000    -1.978000000     6.933000000
H    -3.190000000    -2.651000000     7.719000000
C    -3.207000000    -0.620000000     6.890000000
H    -2.642000000    -0.173000000     7.703000000
C    -3.818000000     0.196000000     5.894000000
O    -3.515000000     1.498000000     5.838000000
C    -2.396000000     1.991000000     5.194000000
C    -2.612000000     3.138000000     4.458000000
H    -3.595000000     3.599000000     4.496000000
C    -1.610000000     3.734000000     3.673000000
O    -1.871000000     4.858000000     2.867000000
C    -0.841000000     5.703000000     2.450000000
C    -0.019000000     6.445000000     3.356000000
H    -0.128000000     6.311000000     4.429000000
C     0.978000000     7.328000000     2.889000000
H     1.650000000     7.874000000     3.546000000
C     1.137000000     7.347000000     1.494000000
H     1.833000000     8.017000000     0.994000000
C     0.240000000     6.702000000     0.605000000
C    -0.758000000     5.856000000     1.095000000
H    -1.488000000     5.358000000     0.462000000
C    -1.552000000    -0.098000000    -0.868000000
H    -2.117000000    -0.982000000    -1.151000000
C    -0.240000000    -0.312000000    -0.495000000
H     0.155000000    -1.322000000    -0.435000000
C     0.495000000     0.692000000     0.134000000
H     1.502000000     0.521000000     0.596000000
C     0.001000000     1.987000000     0.073000000
H     0.644000000     2.811000000     0.371000000
C    -1.277000000     2.178000000    -0.400000000
H    -1.721000000     3.171000000    -0.405000000
C    -2.083000000     1.163000000    -0.836000000
C    -3.565000000     1.287000000    -1.033000000
O    -4.118000000     2.351000000    -1.044000000
O    -4.245000000     0.354000000    -0.749000000
O    -4.634000000     3.980000000    -3.067000000
H    -5.463000000     3.584000000    -3.336000000
H    -4.295000000     3.392000000    -2.392000000
O    -5.699000000     4.304000000    -5.949000000
H    -5.858000000     3.376000000    -5.778000000
H    -5.212000000     4.609000000    -5.183000000
O    -6.058000000     3.119000000     2.951000000
H    -6.785000000     2.753000000     3.454000000
H    -5.389000000     2.434000000     2.962000000
O    -4.088000000     4.095000000     0.855000000
H    -4.151000000     3.427000000     0.173000000
H    -4.009000000     3.598000000     1.670000000
O    -7.760000000    -0.091000000     2.958000000
H    -8.457000000     0.091000000     2.326000000
H    -7.004000000    -0.324000000     2.420000000
O    -4.749000000     7.340000000    -3.687000000
H    -4.188000000     6.595000000    -3.474000000
H    -4.502000000     7.578000000    -4.581000000
O    -6.133000000     1.523000000    -5.924000000
H    -5.783000000     0.800000000    -6.444000000
H    -6.104000000     1.205000000    -5.021000000
O    -7.290000000     5.705000000     1.413000000
H    -7.863000000     4.954000000     1.262000000
H    -6.938000000     5.915000000     0.549000000
O    -6.447000000    -0.788000000     0.037000000
H    -7.002000000    -0.025000000     0.199000000
H    -5.664000000    -0.430000000    -0.382000000
O    -6.382000000     5.848000000    -1.343000000
H    -6.425000000     4.989000000    -1.764000000
H    -6.326000000     6.468000000    -2.070000000
O    -6.705000000     2.154000000    -0.316000000
H    -5.808000000     1.973000000    -0.596000000
H    -6.610000000     2.554000000     0.549000000
O    -9.065000000     0.243000000    -1.020000000
H    -9.369000000     0.195000000    -0.114000000
H    -9.621000000     0.908000000    -1.425000000
O    -4.266000000     1.419000000     1.874000000
H    -3.441000000     1.079000000     2.221000000
H    -4.424000000     0.903000000     1.083000000
O    -7.145000000    -1.917000000    -5.431000000
H    -7.663000000    -2.428000000    -6.052000000
H    -7.543000000    -2.099000000    -4.580000000
O    -3.940000000     6.348000000    -0.534000000
H    -4.884000000     6.283000000    -0.678000000
H    -3.704000000     5.518000000    -0.119000000
O    -1.785000000     0.186000000     2.219000000
H    -1.310000000     0.581000000     1.488000000
H    -1.193000000     0.276000000     2.967000000
O    -5.760000000     0.529000000    -3.315000000
H    -5.394000000     0.520000000    -2.431000000
H    -6.185000000    -0.324000000    -3.407000000
O    -8.571000000    -2.514000000    -0.364000000
H    -7.651000000    -2.265000000    -0.279000000
H    -9.010000000    -1.712000000    -0.649000000
O    -7.259000000     3.037000000    -2.874000000
H    -7.009000000     2.231000000    -3.326000000
H    -7.231000000     2.809000000    -1.945000000
