215
-1434.35745
C    -0.679000000    -3.533000000    -3.982000000
H    -0.750000000    -4.266000000    -3.183000000
C     0.339000000    -2.509000000    -4.082000000
C     0.330000000    -1.679000000    -5.189000000
H     1.118000000    -0.965000000    -5.416000000
C     1.521000000    -2.576000000    -3.164000000
O     1.684000000    -3.894000000    -2.546000000
H     1.252000000    -1.927000000    -2.317000000
O     2.742000000    -2.024000000    -3.631000000
C     3.453000000    -1.118000000    -2.888000000
C     3.213000000     0.220000000    -3.082000000
H     2.578000000     0.573000000    -3.891000000
C     3.676000000     1.153000000    -2.210000000
O     3.306000000     2.428000000    -2.312000000
C     4.671000000     0.747000000    -1.295000000
C     5.354000000     1.787000000    -0.312000000
H     6.286000000     1.430000000     0.131000000
C     4.445000000     2.129000000     0.877000000
C     4.328000000     1.380000000     2.051000000
H     4.793000000     0.401000000     2.135000000
H     5.665000000     2.610000000    -0.958000000
C     4.982000000    -0.595000000    -1.174000000
H     5.509000000    -0.954000000    -0.293000000
C     4.270000000    -1.597000000    -1.882000000
C     4.458000000    -3.057000000    -1.616000000
H     5.448000000    -3.240000000    -1.193000000
H     4.579000000    -3.633000000    -2.536000000
C     3.310000000    -3.565000000    -0.740000000
C     3.460000000    -3.675000000     0.635000000
H     4.402000000    -3.314000000     1.038000000
C     2.071000000    -3.944000000    -1.246000000
C     1.136000000    -4.520000000    -0.397000000
H     0.159000000    -4.829000000    -0.759000000
C     1.209000000    -4.390000000     0.959000000
O     0.033000000    -4.600000000     1.692000000
C    -0.654000000    -3.466000000     2.081000000
C    -2.152000000    -3.691000000     2.047000000
C    -2.972000000    -3.037000000     2.927000000
H    -2.547000000    -2.362000000     3.665000000
C    -2.666000000    -4.415000000     0.983000000
H    -1.897000000    -4.913000000     0.397000000
O    -0.267000000    -3.337000000     3.447000000
H    -0.400000000    -2.572000000     1.494000000
C     2.485000000    -4.042000000     1.524000000
C     2.616000000    -3.851000000     2.995000000
H     3.668000000    -3.882000000     3.288000000
H     2.169000000    -4.717000000     3.488000000
C     2.002000000    -2.577000000     3.444000000
C     2.812000000    -1.491000000     3.624000000
H     3.873000000    -1.518000000     3.389000000
C     0.661000000    -2.408000000     3.761000000
C     0.166000000    -1.158000000     4.192000000
H    -0.884000000    -0.898000000     4.302000000
C     1.039000000    -0.069000000     4.330000000
O     0.491000000     1.140000000     4.693000000
C     0.355000000     2.140000000     3.693000000
C    -0.996000000     2.829000000     3.707000000
C    -2.139000000     2.124000000     4.226000000
H    -2.021000000     1.053000000     4.368000000
C    -1.144000000     4.190000000     3.384000000
H    -0.327000000     4.765000000     2.954000000
O     1.455000000     3.059000000     3.752000000
H     0.344000000     1.577000000     2.748000000
C     2.379000000    -0.240000000     4.059000000
C     3.334000000     0.881000000     4.286000000
H     4.287000000     0.448000000     4.594000000
H     3.129000000     1.599000000     5.083000000
C     3.398000000     1.755000000     3.031000000
C     2.507000000     2.804000000     2.842000000
C     2.561000000     3.514000000     1.701000000
H     1.781000000     4.250000000     1.526000000
C     3.557000000     3.238000000     0.730000000
O     3.268000000     3.800000000    -0.497000000
C     2.399000000     3.025000000    -1.365000000
H     1.833000000     2.253000000    -0.822000000
C     1.359000000     3.870000000    -2.078000000
C     0.773000000     3.252000000    -3.138000000
H     1.152000000     2.329000000    -3.568000000
C     0.814000000     4.971000000    -1.505000000
H     1.148000000     5.467000000    -0.597000000
C    -0.256000000     5.676000000    -2.162000000
O    -0.860000000     6.782000000    -1.568000000
C    -0.809000000     5.026000000    -3.266000000
H    -1.699000000     5.483000000    -3.690000000
C    -0.384000000     3.795000000    -3.667000000
O    -1.123000000     3.210000000    -4.753000000
C    -0.593000000     2.521000000    -5.746000000
C    -0.955000000     1.198000000    -5.857000000
H    -1.715000000     0.861000000    -5.157000000
C     0.186000000     3.133000000    -6.703000000
H     0.502000000     4.173000000    -6.721000000
C     0.691000000     2.430000000    -7.801000000
H     1.102000000     2.988000000    -8.639000000
C     0.355000000     1.099000000    -7.987000000
H     0.568000000     0.605000000    -8.932000000
C    -0.406000000     0.447000000    -6.974000000
O    -0.765000000    -0.861000000    -7.163000000
C    -0.722000000    -1.728000000    -6.087000000
C    -1.705000000    -2.733000000    -5.966000000
H    -2.393000000    -2.856000000    -6.799000000
C    -1.735000000    -3.619000000    -4.878000000
O    -2.630000000    -4.640000000    -4.843000000
C    -2.907000000    -5.358000000    -3.680000000
C    -3.644000000    -4.817000000    -2.622000000
H    -4.025000000    -3.798000000    -2.612000000
C    -2.404000000    -6.657000000    -3.545000000
H    -1.802000000    -7.123000000    -4.321000000
C    -2.716000000    -7.437000000    -2.467000000
H    -2.313000000    -8.444000000    -2.396000000
C    -3.354000000    -6.895000000    -1.384000000
H    -3.550000000    -7.595000000    -0.576000000
C    -3.852000000    -5.580000000    -1.474000000
O    -4.469000000    -5.031000000    -0.389000000
C    -4.030000000    -4.423000000     0.721000000
C    -4.905000000    -3.797000000     1.595000000
H    -5.976000000    -3.975000000     1.529000000
C    -4.351000000    -3.038000000     2.637000000
O    -5.266000000    -2.389000000     3.430000000
C    -4.858000000    -1.515000000     4.396000000
C    -4.988000000    -0.186000000     4.135000000
H    -5.339000000     0.085000000     3.143000000
C    -4.392000000    -1.968000000     5.621000000
H    -4.528000000    -3.023000000     5.846000000
C    -4.102000000    -1.057000000     6.624000000
H    -3.733000000    -1.468000000     7.561000000
C    -3.984000000     0.331000000     6.239000000
H    -3.579000000     0.946000000     7.038000000
C    -4.492000000     0.741000000     5.025000000
O    -4.478000000     2.099000000     4.676000000
C    -3.338000000     2.792000000     4.186000000
C    -3.483000000     4.123000000     3.838000000
H    -4.464000000     4.579000000     3.733000000
C    -2.412000000     4.828000000     3.408000000
O    -2.626000000     6.134000000     2.971000000
C    -1.783000000     6.706000000     2.076000000
C    -0.887000000     7.708000000     2.512000000
H    -0.883000000     8.039000000     3.547000000
C    -0.063000000     8.321000000     1.595000000
H     0.642000000     9.052000000     1.983000000
C    -0.097000000     8.087000000     0.204000000
H     0.637000000     8.559000000    -0.444000000
C    -0.867000000     7.034000000    -0.218000000
C    -1.706000000     6.445000000     0.662000000
H    -2.370000000     5.763000000     0.137000000
C    -1.964000000    -0.782000000    -1.867000000
H    -2.492000000    -1.454000000    -2.539000000
C    -0.962000000    -1.335000000    -0.987000000
H    -0.742000000    -2.400000000    -0.980000000
C    -0.115000000    -0.478000000    -0.278000000
H     0.657000000    -0.917000000     0.401000000
C    -0.335000000     0.884000000    -0.275000000
H     0.331000000     1.576000000     0.234000000
C    -1.260000000     1.425000000    -1.112000000
H    -1.437000000     2.497000000    -1.073000000
C    -2.104000000     0.631000000    -1.871000000
C    -3.180000000     1.288000000    -2.733000000
O    -3.388000000     2.489000000    -2.580000000
O    -3.912000000     0.687000000    -3.440000000
O    -6.290000000     1.453000000    -2.588000000
H    -6.546000000     0.574000000    -2.867000000
H    -5.355000000     1.505000000    -2.786000000
O    -3.946000000     3.387000000    -5.058000000
H    -3.706000000     3.078000000    -4.185000000
H    -3.394000000     4.156000000    -5.200000000
O    -8.779000000     2.224000000    -4.374000000
H    -8.693000000     3.162000000    -4.544000000
H    -8.245000000     2.072000000    -3.595000000
O    -3.768000000     4.790000000    -1.612000000
H    -3.615000000     4.003000000    -2.135000000
H    -4.319000000     4.493000000    -0.888000000
O    -4.688000000     7.347000000    -0.740000000
H    -5.472000000     7.524000000    -1.260000000
H    -4.370000000     6.505000000    -1.065000000
O    -3.587000000     0.830000000    -8.078000000
H    -3.434000000     1.772000000    -8.150000000
H    -2.748000000     0.473000000    -7.785000000
O    -5.840000000     4.810000000    -3.382000000
H    -5.652000000     4.141000000    -4.040000000
H    -5.216000000     4.635000000    -2.677000000
O    -4.927000000    -0.625000000    -5.452000000
H    -5.357000000     0.127000000    -5.859000000
H    -4.386000000    -0.246000000    -4.759000000
O    -7.850000000     0.892000000    -0.528000000
H    -7.287000000     1.163000000    -1.254000000
H    -8.739000000     1.071000000    -0.834000000
O    -7.905000000    -2.327000000    -4.904000000
H    -7.733000000    -2.451000000    -3.971000000
H    -8.617000000    -1.687000000    -4.933000000
O    -5.288000000     3.673000000     0.422000000
H    -6.163000000     3.809000000     0.058000000
H    -5.161000000     2.724000000     0.391000000
O    -5.359000000    -3.217000000    -6.111000000
H    -5.257000000    -2.267000000    -6.046000000
H    -5.090000000    -3.546000000    -5.254000000
O    -6.688000000    -1.197000000     0.730000000
H    -7.468000000    -1.746000000     0.655000000
H    -7.006000000    -0.306000000     0.585000000
O    -2.804000000     5.616000000    -6.518000000
H    -1.857000000     5.740000000    -6.457000000
H    -3.052000000     6.061000000    -7.328000000
O    -5.633000000     1.824000000    -6.651000000
H    -5.031000000     1.346000000    -7.222000000
H    -5.068000000     2.402000000    -6.138000000
O    -6.640000000    -2.329000000    -2.257000000
H    -6.206000000    -1.704000000    -1.675000000
H    -6.998000000    -2.995000000    -1.670000000
O    -8.236000000     0.991000000    -6.863000000
H    -8.374000000     1.354000000    -5.988000000
H    -7.317000000     1.178000000    -7.058000000
O    -7.823000000     4.723000000    -1.161000000
H    -8.662000000     4.953000000    -1.561000000
H    -7.207000000     4.698000000    -1.894000000
O    -4.639000000     0.805000000     0.707000000
H    -3.694000000     0.793000000     0.858000000
H    -4.923000000    -0.088000000     0.904000000
