215
-1458.75026
C    -1.015000000    -3.902000000    -4.023000000
H    -0.883000000    -4.492000000    -3.120000000
C     0.067000000    -3.065000000    -4.234000000
C    -0.005000000    -2.183000000    -5.254000000
H     0.781000000    -1.492000000    -5.549000000
C     1.212000000    -3.015000000    -3.228000000
O     1.427000000    -4.256000000    -2.604000000
H     0.827000000    -2.246000000    -2.543000000
O     2.451000000    -2.603000000    -3.839000000
C     3.315000000    -1.718000000    -3.145000000
C     3.064000000    -0.359000000    -3.408000000
H     2.381000000    -0.021000000    -4.183000000
C     3.810000000     0.613000000    -2.606000000
O     3.436000000     1.956000000    -2.692000000
C     4.729000000     0.158000000    -1.590000000
C     5.467000000     1.098000000    -0.630000000
H     6.372000000     0.578000000    -0.308000000
C     4.703000000     1.674000000     0.540000000
C     4.768000000     0.926000000     1.733000000
H     5.508000000     0.141000000     1.862000000
H     5.802000000     1.919000000    -1.268000000
C     4.842000000    -1.259000000    -1.419000000
H     5.513000000    -1.730000000    -0.705000000
C     4.055000000    -2.189000000    -2.066000000
C     4.096000000    -3.682000000    -1.698000000
H     5.029000000    -3.949000000    -1.197000000
H     4.085000000    -4.192000000    -2.663000000
C     2.833000000    -4.014000000    -0.757000000
C     2.987000000    -4.060000000     0.643000000
H     3.945000000    -3.921000000     1.137000000
C     1.607000000    -4.304000000    -1.261000000
C     0.466000000    -4.436000000    -0.460000000
H    -0.504000000    -4.634000000    -0.908000000
C     0.613000000    -4.351000000     0.913000000
O    -0.543000000    -4.426000000     1.559000000
C    -1.044000000    -3.163000000     2.187000000
C    -2.533000000    -3.069000000     2.071000000
C    -3.298000000    -2.388000000     3.002000000
H    -2.763000000    -1.958000000     3.844000000
C    -3.162000000    -3.735000000     1.032000000
H    -2.526000000    -4.171000000     0.267000000
O    -0.616000000    -3.178000000     3.572000000
H    -0.547000000    -2.348000000     1.640000000
C     1.886000000    -4.286000000     1.486000000
C     2.037000000    -4.241000000     2.994000000
H     3.004000000    -4.585000000     3.367000000
H     1.339000000    -4.964000000     3.421000000
C     1.792000000    -2.857000000     3.576000000
C     2.899000000    -1.949000000     3.628000000
H     3.889000000    -2.277000000     3.324000000
C     0.533000000    -2.447000000     3.927000000
C     0.315000000    -1.183000000     4.418000000
H    -0.703000000    -0.903000000     4.677000000
C     1.341000000    -0.275000000     4.414000000
O     1.162000000     1.085000000     4.745000000
C     1.105000000     2.094000000     3.720000000
C    -0.122000000     3.024000000     3.841000000
C    -1.483000000     2.488000000     4.003000000
H    -1.697000000     1.422000000     4.015000000
C     0.091000000     4.439000000     3.729000000
H     1.105000000     4.799000000     3.578000000
O     2.313000000     2.851000000     3.702000000
H     0.997000000     1.459000000     2.829000000
C     2.675000000    -0.593000000     4.069000000
C     3.872000000     0.405000000     3.984000000
H     4.812000000    -0.129000000     4.139000000
H     3.684000000     1.024000000     4.864000000
C     3.965000000     1.306000000     2.780000000
C     3.183000000     2.506000000     2.716000000
C     3.033000000     3.135000000     1.512000000
H     2.342000000     3.967000000     1.408000000
C     3.778000000     2.741000000     0.423000000
O     3.589000000     3.256000000    -0.804000000
C     2.696000000     2.476000000    -1.638000000
H     2.404000000     1.582000000    -1.067000000
C     1.451000000     3.263000000    -2.060000000
C     0.594000000     2.678000000    -3.014000000
H     0.853000000     1.722000000    -3.461000000
C     1.109000000     4.510000000    -1.549000000
H     1.703000000     4.955000000    -0.755000000
C    -0.009000000     5.175000000    -1.939000000
O    -0.408000000     6.419000000    -1.433000000
C    -0.814000000     4.635000000    -2.934000000
H    -1.757000000     5.100000000    -3.207000000
C    -0.492000000     3.406000000    -3.442000000
O    -1.357000000     2.810000000    -4.361000000
C    -0.940000000     2.167000000    -5.485000000
C    -1.244000000     0.780000000    -5.725000000
H    -1.749000000     0.218000000    -4.945000000
C    -0.372000000     2.939000000    -6.466000000
H    -0.180000000     3.994000000    -6.290000000
C    -0.093000000     2.408000000    -7.699000000
H     0.355000000     3.089000000    -8.418000000
C    -0.438000000     1.022000000    -7.917000000
H    -0.265000000     0.513000000    -8.862000000
C    -1.019000000     0.173000000    -6.951000000
O    -1.218000000    -1.203000000    -7.179000000
C    -1.119000000    -2.076000000    -6.168000000
C    -2.119000000    -3.042000000    -5.990000000
H    -3.007000000    -3.156000000    -6.608000000
C    -2.152000000    -3.819000000    -4.863000000
O    -3.310000000    -4.503000000    -4.624000000
C    -3.507000000    -4.971000000    -3.325000000
C    -4.130000000    -4.248000000    -2.362000000
H    -4.370000000    -3.197000000    -2.499000000
C    -3.283000000    -6.331000000    -3.115000000
H    -2.846000000    -6.892000000    -3.937000000
C    -3.562000000    -6.917000000    -1.889000000
H    -3.321000000    -7.944000000    -1.625000000
C    -4.341000000    -6.171000000    -0.961000000
H    -4.568000000    -6.589000000     0.016000000
C    -4.601000000    -4.845000000    -1.185000000
O    -5.256000000    -4.071000000    -0.203000000
C    -4.581000000    -3.643000000     0.905000000
C    -5.320000000    -2.901000000     1.812000000
H    -6.355000000    -2.717000000     1.535000000
C    -4.675000000    -2.247000000     2.856000000
O    -5.449000000    -1.447000000     3.612000000
C    -4.950000000    -0.492000000     4.452000000
C    -4.738000000     0.807000000     3.991000000
H    -4.865000000     0.974000000     2.925000000
C    -4.544000000    -0.922000000     5.759000000
H    -4.833000000    -1.920000000     6.077000000
C    -3.990000000     0.025000000     6.634000000
H    -3.555000000    -0.224000000     7.598000000
C    -3.831000000     1.380000000     6.118000000
H    -3.364000000     2.104000000     6.781000000
C    -4.149000000     1.778000000     4.851000000
O    -3.837000000     2.992000000     4.319000000
C    -2.516000000     3.413000000     4.175000000
C    -2.294000000     4.755000000     3.891000000
H    -3.125000000     5.453000000     3.824000000
C    -1.032000000     5.292000000     3.677000000
O    -0.848000000     6.598000000     3.353000000
C    -0.237000000     7.084000000     2.212000000
C     0.380000000     8.343000000     2.234000000
H     0.559000000     8.895000000     3.153000000
C     0.604000000     8.941000000     1.012000000
H     0.973000000     9.951000000     0.852000000
C     0.468000000     8.266000000    -0.203000000
H     0.787000000     8.638000000    -1.173000000
C     0.004000000     6.909000000    -0.197000000
C    -0.544000000     6.483000000     0.993000000
H    -0.948000000     5.474000000     1.016000000
C    -2.287000000    -0.453000000    -1.808000000
H    -3.045000000    -0.952000000    -2.407000000
C    -1.221000000    -1.234000000    -1.322000000
H    -1.136000000    -2.300000000    -1.518000000
C    -0.288000000    -0.656000000    -0.482000000
H     0.495000000    -1.374000000    -0.035000000
C    -0.286000000     0.726000000    -0.163000000
H     0.516000000     1.176000000     0.417000000
C    -1.299000000     1.484000000    -0.780000000
H    -1.384000000     2.523000000    -0.470000000
C    -2.319000000     0.948000000    -1.576000000
C    -3.382000000     1.756000000    -2.234000000
O    -3.521000000     2.880000000    -1.741000000
O    -4.243000000     1.323000000    -3.058000000
O    -6.854000000     1.755000000    -2.716000000
H    -5.902000000     1.658000000    -2.693000000
H    -7.024000000     2.572000000    -2.247000000
O    -4.362000000     1.713000000    -5.776000000
H    -4.338000000     1.593000000    -4.826000000
H    -3.884000000     2.529000000    -5.925000000
O    -8.948000000     2.386000000    -4.403000000
H    -8.578000000     2.919000000    -5.106000000
H    -8.213000000     2.227000000    -3.811000000
O    -3.184000000     4.982000000     0.323000000
H    -2.909000000     4.490000000    -0.450000000
H    -3.778000000     4.390000000     0.785000000
O    -4.152000000     7.770000000     0.580000000
H    -3.743000000     6.935000000     0.806000000
H    -5.091000000     7.583000000     0.575000000
O    -4.612000000    -0.933000000    -6.876000000
H    -4.960000000    -1.604000000    -6.288000000
H    -4.660000000    -0.122000000    -6.370000000
O    -5.153000000     4.292000000    -3.569000000
H    -5.077000000     3.891000000    -4.435000000
H    -4.407000000     3.946000000    -3.079000000
O    -5.529000000    -0.888000000    -2.448000000
H    -5.987000000    -1.153000000    -3.246000000
H    -5.036000000    -0.107000000    -2.702000000
O    -2.120000000     6.327000000    -5.662000000
H    -1.167000000     6.400000000    -5.599000000
H    -2.420000000     7.225000000    -5.800000000
O    -4.567000000     7.255000000    -3.379000000
H    -3.654000000     7.481000000    -3.199000000
H    -4.568000000     6.300000000    -3.443000000
O    -6.559000000     3.075000000     2.671000000
H    -5.807000000     2.902000000     3.238000000
H    -6.188000000     3.127000000     1.790000000
O    -6.654000000    -2.491000000    -6.102000000
H    -6.942000000    -1.850000000    -5.452000000
H    -6.887000000    -3.338000000    -5.722000000
O    -3.866000000     4.368000000    -6.656000000
H    -3.212000000     5.006000000    -6.370000000
H    -3.627000000     4.170000000    -7.562000000
O    -7.697000000     4.868000000    -2.303000000
H    -8.195000000     5.147000000    -3.071000000
H    -6.813000000     4.710000000    -2.634000000
O    -5.904000000     1.833000000    -8.296000000
H    -5.237000000     1.750000000    -8.978000000
H    -5.432000000     1.674000000    -7.479000000
O    -4.851000000     0.181000000     0.414000000
H    -4.366000000    -0.077000000    -0.369000000
H    -5.753000000    -0.084000000     0.235000000
O    -7.600000000    -0.622000000    -4.359000000
H    -8.529000000    -0.732000000    -4.157000000
H    -7.350000000     0.183000000    -3.905000000
O    -9.773000000     4.540000000    -0.749000000
H    -8.854000000     4.662000000    -0.988000000
H    -9.778000000     3.747000000    -0.214000000
O    -5.050000000     2.735000000     0.476000000
H    -4.649000000     2.878000000    -0.381000000
H    -4.826000000     1.832000000     0.698000000
