215
-1451.76730
C    -3.414000000     1.101000000    -3.721000000
H    -3.425000000     0.017000000    -3.808000000
C    -2.244000000     1.876000000    -3.763000000
C    -2.295000000     3.241000000    -3.473000000
H    -1.357000000     3.784000000    -3.382000000
C    -0.926000000     1.212000000    -3.996000000
O    -1.059000000     0.119000000    -4.894000000
H    -0.537000000     0.859000000    -3.030000000
O     0.115000000     2.114000000    -4.560000000
C     1.376000000     2.141000000    -4.013000000
C     1.665000000     3.081000000    -3.072000000
H     1.006000000     3.938000000    -2.968000000
C     2.686000000     2.810000000    -2.156000000
O     2.675000000     3.595000000    -1.029000000
C     3.663000000     1.819000000    -2.421000000
C     4.910000000     1.519000000    -1.638000000
H     5.654000000     1.040000000    -2.277000000
C     4.508000000     0.701000000    -0.471000000
C     4.709000000    -0.670000000    -0.397000000
H     4.975000000    -1.164000000    -1.328000000
H     5.298000000     2.495000000    -1.339000000
C     3.417000000     0.981000000    -3.491000000
H     4.067000000     0.132000000    -3.690000000
C     2.226000000     1.074000000    -4.253000000
C     1.848000000    -0.052000000    -5.261000000
H     2.763000000    -0.551000000    -5.588000000
H     1.392000000     0.294000000    -6.191000000
C     0.955000000    -1.164000000    -4.676000000
C     1.579000000    -2.351000000    -4.101000000
H     2.658000000    -2.420000000    -4.213000000
C    -0.426000000    -1.041000000    -4.621000000
C    -1.153000000    -2.133000000    -4.081000000
H    -2.211000000    -1.955000000    -3.911000000
C    -0.573000000    -3.273000000    -3.537000000
O    -1.314000000    -4.099000000    -2.725000000
C    -1.337000000    -3.707000000    -1.361000000
C    -2.612000000    -3.670000000    -0.671000000
C    -2.654000000    -3.675000000     0.740000000
H    -1.731000000    -3.882000000     1.276000000
C    -3.752000000    -3.262000000    -1.361000000
H    -3.589000000    -3.092000000    -2.422000000
O    -0.493000000    -4.633000000    -0.667000000
H    -0.923000000    -2.697000000    -1.227000000
C     0.843000000    -3.433000000    -3.540000000
C     1.479000000    -4.618000000    -2.867000000
H     2.412000000    -4.780000000    -3.410000000
H     0.914000000    -5.528000000    -3.076000000
C     1.764000000    -4.325000000    -1.442000000
C     3.103000000    -3.937000000    -1.070000000
H     3.900000000    -3.827000000    -1.801000000
C     0.825000000    -4.312000000    -0.410000000
C     1.163000000    -4.102000000     0.889000000
H     0.348000000    -4.184000000     1.604000000
C     2.477000000    -3.689000000     1.236000000
O     2.700000000    -3.341000000     2.549000000
C     2.567000000    -1.970000000     3.001000000
C     1.950000000    -1.843000000     4.372000000
C     0.938000000    -2.691000000     4.710000000
H     0.658000000    -3.441000000     3.975000000
C     2.239000000    -0.713000000     5.209000000
H     3.003000000     0.028000000     4.988000000
O     3.926000000    -1.493000000     2.994000000
H     1.936000000    -1.514000000     2.224000000
C     3.418000000    -3.469000000     0.224000000
C     4.777000000    -2.847000000     0.582000000
H     5.519000000    -3.009000000    -0.202000000
H     5.191000000    -3.277000000     1.496000000
C     4.613000000    -1.359000000     0.769000000
C     4.156000000    -0.754000000     1.903000000
C     3.906000000     0.617000000     1.871000000
H     3.470000000     1.085000000     2.750000000
C     4.136000000     1.377000000     0.693000000
O     3.756000000     2.631000000     0.791000000
C     2.440000000     2.999000000     0.288000000
H     1.863000000     2.063000000     0.245000000
C     1.619000000     3.945000000     1.117000000
C     0.643000000     4.844000000     0.638000000
H     0.595000000     4.942000000    -0.443000000
C     1.743000000     3.893000000     2.507000000
H     2.474000000     3.241000000     2.980000000
C     1.060000000     4.752000000     3.350000000
O     1.164000000     4.642000000     4.765000000
C     0.061000000     5.578000000     2.849000000
H    -0.561000000     6.158000000     3.527000000
C    -0.142000000     5.577000000     1.486000000
O    -1.138000000     6.354000000     0.939000000
C    -1.391000000     6.593000000    -0.369000000
C    -2.246000000     5.796000000    -1.111000000
H    -2.647000000     4.878000000    -0.689000000
C    -0.897000000     7.771000000    -1.020000000
H    -0.217000000     8.366000000    -0.416000000
C    -1.245000000     8.039000000    -2.333000000
H    -0.840000000     8.906000000    -2.850000000
C    -2.047000000     7.220000000    -3.068000000
H    -2.219000000     7.545000000    -4.091000000
C    -2.588000000     6.053000000    -2.465000000
O    -3.537000000     5.258000000    -3.131000000
C    -3.477000000     3.941000000    -3.344000000
C    -4.642000000     3.247000000    -3.417000000
H    -5.548000000     3.818000000    -3.226000000
C    -4.656000000     1.823000000    -3.507000000
O    -5.894000000     1.172000000    -3.439000000
C    -6.115000000    -0.139000000    -3.637000000
C    -6.009000000    -0.950000000    -2.525000000
H    -6.114000000    -0.497000000    -1.542000000
C    -6.123000000    -0.741000000    -4.886000000
H    -6.267000000    -0.133000000    -5.775000000
C    -5.992000000    -2.120000000    -5.049000000
H    -5.793000000    -2.614000000    -5.997000000
C    -5.946000000    -2.935000000    -3.914000000
H    -5.863000000    -4.018000000    -3.944000000
C    -6.041000000    -2.277000000    -2.673000000
O    -6.172000000    -2.946000000    -1.470000000
C    -4.993000000    -3.181000000    -0.690000000
C    -5.050000000    -3.200000000     0.690000000
H    -5.998000000    -3.077000000     1.208000000
C    -3.892000000    -3.458000000     1.396000000
O    -4.028000000    -3.622000000     2.758000000
C    -3.082000000    -4.314000000     3.561000000
C    -2.331000000    -3.608000000     4.477000000
H    -2.579000000    -2.564000000     4.650000000
C    -2.665000000    -5.635000000     3.221000000
H    -3.131000000    -6.163000000     2.393000000
C    -1.657000000    -6.230000000     4.058000000
H    -1.386000000    -7.260000000     3.838000000
C    -1.140000000    -5.544000000     5.139000000
H    -0.451000000    -5.976000000     5.860000000
C    -1.358000000    -4.153000000     5.303000000
O    -0.672000000    -3.463000000     6.268000000
C     0.335000000    -2.574000000     5.971000000
C     0.558000000    -1.464000000     6.773000000
H     0.097000000    -1.389000000     7.755000000
C     1.507000000    -0.550000000     6.354000000
O     1.631000000     0.611000000     7.164000000
C     2.241000000     1.762000000     6.695000000
C     3.606000000     1.885000000     6.533000000
H     4.311000000     1.175000000     6.956000000
C     4.208000000     3.038000000     6.032000000
H     5.280000000     3.213000000     6.070000000
C     3.378000000     4.059000000     5.541000000
H     3.847000000     4.950000000     5.132000000
C     2.031000000     3.806000000     5.465000000
C     1.435000000     2.674000000     6.018000000
H     0.398000000     2.444000000     5.786000000
C    -1.467000000    -0.127000000     1.909000000
H    -1.791000000    -0.641000000     2.811000000
C    -0.880000000    -0.785000000     0.795000000
H    -0.632000000    -1.843000000     0.827000000
C    -0.559000000    -0.117000000    -0.369000000
H    -0.213000000    -0.546000000    -1.182000000
C    -0.823000000     1.288000000    -0.418000000
H    -0.568000000     1.847000000    -1.315000000
C    -1.452000000     1.931000000     0.633000000
H    -1.679000000     2.990000000     0.548000000
C    -1.795000000     1.224000000     1.797000000
C    -2.709000000     1.774000000     2.844000000
O    -2.622000000     2.931000000     3.174000000
O    -3.449000000     1.000000000     3.470000000
O    -2.678000000     0.640000000     8.517000000
H    -2.423000000     1.490000000     8.158000000
H    -2.927000000     0.827000000     9.422000000
O    -5.859000000    -2.241000000     6.176000000
H    -5.116000000    -1.728000000     5.859000000
H    -6.213000000    -1.726000000     6.902000000
O    -4.923000000     2.074000000     7.001000000
H    -5.211000000     1.166000000     7.094000000
H    -5.000000000     2.255000000     6.064000000
O    -2.025000000     4.385000000     5.068000000
H    -1.081000000     4.537000000     5.103000000
H    -2.129000000     3.671000000     4.439000000
O    -6.441000000     5.006000000    -0.689000000
H    -6.705000000     5.913000000    -0.535000000
H    -6.966000000     4.729000000    -1.440000000
O    -6.098000000     0.656000000     3.862000000
H    -5.151000000     0.785000000     3.910000000
H    -6.462000000     1.541000000     3.889000000
O    -8.045000000    -1.108000000     3.041000000
H    -7.947000000    -2.060000000     3.004000000
H    -7.275000000    -0.807000000     3.525000000
O    -3.592000000     5.661000000     2.866000000
H    -2.885000000     6.154000000     3.282000000
H    -3.274000000     4.758000000     2.846000000
O    -8.619000000     1.670000000     2.547000000
H    -8.533000000     0.727000000     2.681000000
H    -7.996000000     1.871000000     1.848000000
O    -4.625000000     1.069000000     0.635000000
H    -3.814000000     1.123000000     0.130000000
H    -4.473000000     0.357000000     1.257000000
O    -4.463000000     5.504000000     6.692000000
H    -5.409000000     5.433000000     6.565000000
H    -4.087000000     5.238000000     5.853000000
O    -6.140000000     4.770000000     2.019000000
H    -5.907000000     4.193000000     1.292000000
H    -5.350000000     5.285000000     2.179000000
O    -2.437000000     3.387000000     7.544000000
H    -3.340000000     3.075000000     7.487000000
H    -2.271000000     3.796000000     6.694000000
O    -4.661000000     7.308000000     1.059000000
H    -4.306000000     6.656000000     1.664000000
H    -5.599000000     7.325000000     1.249000000
O    -3.658000000    -0.520000000     5.713000000
H    -3.093000000    -0.221000000     6.425000000
H    -3.435000000     0.048000000     4.976000000
O    -7.084000000     2.171000000     0.210000000
H    -6.903000000     3.010000000    -0.215000000
H    -6.236000000     1.728000000     0.235000000
O    -2.325000000     7.583000000     5.443000000
H    -1.499000000     8.066000000     5.424000000
H    -2.165000000     6.859000000     6.048000000
O    -8.739000000     1.549000000     5.322000000
H    -8.701000000     1.425000000     4.374000000
H    -7.905000000     1.963000000     5.543000000
O    -5.346000000     3.268000000     4.278000000
H    -4.550000000     2.839000000     3.964000000
H    -5.573000000     3.889000000     3.586000000
