215
-1442.01722
C    -1.817000000    -2.529000000    -3.795000000
H    -1.483000000    -3.420000000    -3.269000000
C    -0.845000000    -1.629000000    -4.243000000
C    -1.221000000    -0.626000000    -5.153000000
H    -0.518000000     0.158000000    -5.424000000
C     0.601000000    -1.714000000    -3.766000000
O     0.952000000    -3.116000000    -3.535000000
H     0.613000000    -1.309000000    -2.744000000
O     1.504000000    -0.971000000    -4.696000000
C     2.493000000    -0.247000000    -4.067000000
C     2.342000000     1.155000000    -4.092000000
H     1.433000000     1.570000000    -4.520000000
C     3.159000000     1.951000000    -3.393000000
O     2.809000000     3.187000000    -3.073000000
C     4.190000000     1.359000000    -2.617000000
C     4.935000000     2.151000000    -1.569000000
H     5.903000000     1.665000000    -1.434000000
C     4.302000000     2.301000000    -0.165000000
C     4.803000000     1.600000000     0.948000000
H     5.655000000     0.950000000     0.766000000
H     5.091000000     3.118000000    -2.053000000
C     4.400000000    -0.022000000    -2.710000000
H     5.163000000    -0.417000000    -2.044000000
C     3.548000000    -0.861000000    -3.411000000
C     3.674000000    -2.391000000    -3.341000000
H     4.707000000    -2.710000000    -3.184000000
H     3.437000000    -2.920000000    -4.267000000
C     2.837000000    -3.015000000    -2.142000000
C     3.461000000    -3.325000000    -0.895000000
H     4.476000000    -3.030000000    -0.642000000
C     1.529000000    -3.459000000    -2.343000000
C     0.774000000    -4.043000000    -1.323000000
H    -0.297000000    -4.210000000    -1.411000000
C     1.387000000    -4.378000000    -0.115000000
O     0.564000000    -4.781000000     0.954000000
C     0.098000000    -3.720000000     1.906000000
C    -1.392000000    -4.084000000     2.219000000
C    -1.848000000    -3.932000000     3.506000000
H    -1.233000000    -3.488000000     4.285000000
C    -2.241000000    -4.464000000     1.176000000
H    -1.870000000    -4.405000000     0.157000000
O     0.904000000    -3.866000000     3.105000000
H     0.101000000    -2.767000000     1.357000000
C     2.663000000    -3.929000000     0.122000000
C     3.292000000    -4.175000000     1.521000000
H     4.382000000    -4.235000000     1.531000000
H     3.027000000    -5.180000000     1.856000000
C     3.024000000    -2.985000000     2.464000000
C     3.945000000    -1.910000000     2.555000000
H     4.868000000    -1.867000000     1.982000000
C     1.907000000    -2.953000000     3.265000000
C     1.648000000    -1.853000000     4.123000000
H     0.770000000    -1.811000000     4.762000000
C     2.467000000    -0.762000000     4.047000000
O     2.061000000     0.391000000     4.686000000
C     1.310000000     1.411000000     3.871000000
C     0.037000000     1.972000000     4.480000000
C    -0.768000000     1.174000000     5.347000000
H    -0.567000000     0.114000000     5.475000000
C    -0.348000000     3.289000000     4.239000000
H     0.213000000     3.949000000     3.582000000
O     2.260000000     2.491000000     3.576000000
H     0.958000000     0.936000000     2.943000000
C     3.659000000    -0.786000000     3.327000000
C     4.555000000     0.499000000     3.147000000
H     5.567000000     0.149000000     2.932000000
H     4.591000000     0.932000000     4.149000000
C     4.107000000     1.570000000     2.140000000
C     2.975000000     2.393000000     2.365000000
C     2.683000000     3.298000000     1.409000000
H     1.794000000     3.920000000     1.475000000
C     3.205000000     3.145000000     0.121000000
O     2.635000000     3.945000000    -0.829000000
C     1.879000000     3.363000000    -1.917000000
H     1.538000000     2.393000000    -1.525000000
C     0.627000000     4.289000000    -2.211000000
C     0.103000000     4.310000000    -3.539000000
H     0.737000000     3.845000000    -4.289000000
C    -0.133000000     4.886000000    -1.187000000
H     0.099000000     4.818000000    -0.127000000
C    -1.362000000     5.410000000    -1.395000000
O    -2.128000000     5.861000000    -0.398000000
C    -1.816000000     5.519000000    -2.697000000
H    -2.752000000     6.036000000    -2.894000000
C    -1.094000000     4.936000000    -3.745000000
O    -1.583000000     4.990000000    -5.050000000
C    -1.408000000     3.931000000    -5.954000000
C    -2.212000000     2.809000000    -5.772000000
H    -2.820000000     2.684000000    -4.880000000
C    -0.613000000     4.069000000    -7.093000000
H    -0.223000000     5.067000000    -7.275000000
C    -0.487000000     3.004000000    -7.976000000
H     0.043000000     2.999000000    -8.925000000
C    -1.273000000     1.853000000    -7.776000000
H    -1.327000000     1.050000000    -8.507000000
C    -2.093000000     1.745000000    -6.635000000
O    -2.910000000     0.602000000    -6.394000000
C    -2.564000000    -0.463000000    -5.501000000
C    -3.545000000    -1.418000000    -5.073000000
H    -4.620000000    -1.300000000    -5.188000000
C    -3.152000000    -2.473000000    -4.213000000
O    -4.062000000    -3.464000000    -3.930000000
C    -3.853000000    -4.456000000    -3.067000000
C    -4.293000000    -4.331000000    -1.750000000
H    -4.715000000    -3.380000000    -1.435000000
C    -3.444000000    -5.703000000    -3.499000000
H    -3.081000000    -5.829000000    -4.516000000
C    -3.490000000    -6.798000000    -2.634000000
H    -3.236000000    -7.804000000    -2.958000000
C    -3.918000000    -6.637000000    -1.292000000
H    -4.136000000    -7.488000000    -0.652000000
C    -4.300000000    -5.397000000    -0.827000000
O    -4.534000000    -5.164000000     0.491000000
C    -3.596000000    -4.668000000     1.427000000
C    -4.075000000    -4.474000000     2.745000000
H    -5.157000000    -4.478000000     2.851000000
C    -3.189000000    -4.034000000     3.723000000
O    -3.778000000    -3.562000000     4.916000000
C    -3.139000000    -2.724000000     5.772000000
C    -3.275000000    -1.346000000     5.717000000
H    -3.810000000    -0.873000000     4.897000000
C    -2.352000000    -3.215000000     6.771000000
H    -2.134000000    -4.280000000     6.778000000
C    -1.766000000    -2.388000000     7.726000000
H    -1.206000000    -2.828000000     8.547000000
C    -2.022000000    -1.023000000     7.739000000
H    -1.554000000    -0.363000000     8.464000000
C    -2.679000000    -0.524000000     6.656000000
O    -2.887000000     0.878000000     6.455000000
C    -2.012000000     1.660000000     5.813000000
C    -2.380000000     2.924000000     5.476000000
H    -3.361000000     3.293000000     5.762000000
C    -1.625000000     3.744000000     4.677000000
O    -2.055000000     5.040000000     4.358000000
C    -1.599000000     5.686000000     3.240000000
C    -0.649000000     6.761000000     3.391000000
H    -0.178000000     6.908000000     4.360000000
C    -0.198000000     7.480000000     2.280000000
H     0.545000000     8.271000000     2.325000000
C    -0.765000000     7.201000000     0.986000000
H    -0.483000000     7.830000000     0.146000000
C    -1.706000000     6.213000000     0.897000000
C    -2.004000000     5.400000000     1.940000000
H    -2.751000000     4.632000000     1.760000000
C    -2.218000000    -0.503000000    -0.430000000
H    -3.146000000    -0.976000000    -0.739000000
C    -0.968000000    -1.039000000    -0.562000000
H    -0.907000000    -2.013000000    -1.040000000
C     0.220000000    -0.410000000    -0.082000000
H     1.148000000    -0.985000000    -0.107000000
C     0.042000000     0.820000000     0.519000000
H     0.996000000     1.170000000     0.904000000
C    -1.213000000     1.384000000     0.663000000
H    -1.321000000     2.381000000     1.082000000
C    -2.384000000     0.733000000     0.257000000
C    -3.696000000     1.398000000     0.261000000
O    -3.939000000     2.427000000     0.889000000
O    -4.590000000     1.091000000    -0.511000000
O    -4.947000000     4.607000000    -0.335000000
H    -4.512000000     3.763000000    -0.208000000
H    -4.244000000     5.252000000    -0.267000000
O    -6.911000000     2.472000000    -0.151000000
H    -6.105000000     1.988000000     0.030000000
H    -6.617000000     3.357000000    -0.364000000
O    -4.866000000     2.500000000     3.478000000
H    -4.044000000     2.749000000     3.899000000
H    -4.621000000     2.294000000     2.576000000
O    -7.521000000     4.318000000    -3.162000000
H    -7.022000000     4.372000000    -3.977000000
H    -7.244000000     5.085000000    -2.661000000
O    -7.721000000     1.425000000    -2.461000000
H    -7.470000000     1.522000000    -1.542000000
H    -7.847000000     2.321000000    -2.771000000
O    -4.982000000     1.717000000    -3.197000000
H    -4.467000000     1.676000000    -2.391000000
H    -5.889000000     1.617000000    -2.907000000
O    -5.256000000     6.671000000     2.889000000
H    -5.892000000     6.257000000     2.306000000
H    -4.709000000     7.201000000     2.309000000
O    -6.997000000     3.062000000     5.244000000
H    -6.258000000     2.875000000     4.665000000
H    -7.454000000     2.225000000     5.328000000
O   -10.027000000     0.469000000    -1.496000000
H    -9.318000000     0.819000000    -2.035000000
H    -9.882000000     0.851000000    -0.631000000
O    -5.718000000     0.996000000    -5.955000000
H    -5.980000000     0.597000000    -5.125000000
H    -5.487000000     1.896000000    -5.726000000
O    -6.502000000    -0.651000000     0.339000000
H    -5.972000000     0.110000000     0.103000000
H    -6.518000000    -1.187000000    -0.454000000
O    -6.545000000     6.426000000    -1.518000000
H    -7.122000000     6.546000000    -0.763000000
H    -5.964000000     5.709000000    -1.264000000
O    -8.009000000    -2.737000000     2.488000000
H    -7.989000000    -3.033000000     3.398000000
H    -8.650000000    -2.026000000     2.482000000
O    -6.867000000    -2.254000000    -2.372000000
H    -6.940000000    -3.141000000    -2.725000000
H    -6.737000000    -1.699000000    -3.141000000
O    -5.945000000    -0.944000000     3.465000000
H    -6.342000000    -1.622000000     2.918000000
H    -5.850000000    -0.191000000     2.881000000
O    -8.493000000     1.935000000     3.074000000
H    -7.579000000     2.196000000     2.960000000
H    -8.929000000     2.724000000     3.396000000
O    -9.073000000    -0.205000000     1.289000000
H    -9.075000000     0.358000000     2.063000000
H    -8.146000000    -0.354000000     1.104000000
O   -10.348000000     2.577000000     0.333000000
H   -10.615000000     3.180000000    -0.361000000
H    -9.405000000     2.471000000     0.209000000
O    -7.565000000     0.131000000     5.383000000
H    -7.142000000    -0.118000000     4.561000000
H    -7.131000000    -0.405000000     6.047000000
