215
-1438.09305
C    -2.027000000    -2.994000000    -4.292000000
H    -1.563000000    -3.977000000    -4.293000000
C    -1.267000000    -1.778000000    -4.276000000
C    -1.925000000    -0.569000000    -4.184000000
H    -1.356000000     0.347000000    -4.048000000
C     0.224000000    -1.773000000    -3.984000000
O     0.762000000    -3.130000000    -4.114000000
H     0.293000000    -1.547000000    -2.910000000
O     0.891000000    -0.803000000    -4.770000000
C     1.916000000    -0.059000000    -4.286000000
C     1.735000000     1.293000000    -4.097000000
H     0.811000000     1.755000000    -4.434000000
C     2.596000000     2.039000000    -3.299000000
O     2.231000000     3.394000000    -3.034000000
C     3.633000000     1.440000000    -2.687000000
C     4.725000000     2.181000000    -1.922000000
H     5.688000000     1.672000000    -1.999000000
C     4.293000000     2.410000000    -0.450000000
C     4.725000000     1.382000000     0.408000000
H     5.425000000     0.594000000     0.143000000
H     5.010000000     3.125000000    -2.390000000
C     3.856000000     0.098000000    -2.910000000
H     4.686000000    -0.494000000    -2.536000000
C     2.989000000    -0.639000000    -3.734000000
C     3.371000000    -2.122000000    -3.978000000
H     4.462000000    -2.121000000    -4.009000000
H     2.958000000    -2.304000000    -4.972000000
C     2.877000000    -3.060000000    -2.925000000
C     3.557000000    -3.297000000    -1.754000000
H     4.565000000    -2.922000000    -1.591000000
C     1.577000000    -3.524000000    -3.096000000
C     0.933000000    -4.199000000    -2.050000000
H    -0.070000000    -4.552000000    -2.275000000
C     1.541000000    -4.328000000    -0.787000000
O     0.870000000    -4.894000000     0.227000000
C     0.297000000    -4.045000000     1.314000000
C    -1.159000000    -4.361000000     1.748000000
C    -1.690000000    -3.849000000     2.913000000
H    -1.023000000    -3.287000000     3.561000000
C    -1.967000000    -5.101000000     0.927000000
H    -1.587000000    -5.530000000     0.003000000
O     1.245000000    -4.171000000     2.328000000
H     0.279000000    -3.009000000     0.946000000
C     2.883000000    -3.979000000    -0.678000000
C     3.625000000    -4.117000000     0.621000000
H     4.691000000    -3.939000000     0.466000000
H     3.495000000    -5.106000000     1.064000000
C     3.319000000    -3.100000000     1.725000000
C     4.142000000    -2.009000000     1.815000000
H     5.036000000    -1.842000000     1.220000000
C     2.120000000    -3.093000000     2.462000000
C     1.755000000    -1.926000000     3.161000000
H     0.809000000    -1.999000000     3.691000000
C     2.540000000    -0.818000000     3.230000000
O     2.064000000     0.152000000     4.059000000
C     1.518000000     1.311000000     3.388000000
C     0.386000000     1.872000000     4.196000000
C    -0.420000000     0.995000000     5.030000000
H    -0.195000000     0.009000000     5.430000000
C    -0.032000000     3.145000000     3.929000000
H     0.538000000     3.856000000     3.336000000
O     2.564000000     2.289000000     3.342000000
H     1.075000000     1.103000000     2.403000000
C     3.781000000    -0.847000000     2.581000000
C     4.770000000     0.336000000     2.716000000
H     5.790000000    -0.002000000     2.525000000
H     4.806000000     0.716000000     3.740000000
C     4.363000000     1.437000000     1.771000000
C     3.362000000     2.376000000     2.177000000
C     2.891000000     3.355000000     1.315000000
H     2.146000000     4.052000000     1.690000000
C     3.314000000     3.332000000    -0.040000000
O     2.814000000     4.207000000    -0.973000000
C     1.764000000     3.710000000    -1.776000000
H     1.488000000     2.748000000    -1.320000000
C     0.591000000     4.702000000    -1.916000000
C    -0.398000000     4.622000000    -2.901000000
H    -0.371000000     3.976000000    -3.774000000
C     0.472000000     5.732000000    -1.001000000
H     1.321000000     5.831000000    -0.328000000
C    -0.675000000     6.443000000    -0.804000000
O    -0.798000000     7.376000000     0.299000000
C    -1.673000000     6.318000000    -1.722000000
H    -2.591000000     6.892000000    -1.632000000
C    -1.536000000     5.496000000    -2.855000000
O    -2.611000000     5.435000000    -3.725000000
C    -2.810000000     4.249000000    -4.436000000
C    -3.409000000     3.116000000    -3.845000000
H    -3.860000000     3.159000000    -2.857000000
C    -2.277000000     4.175000000    -5.693000000
H    -1.768000000     5.074000000    -6.031000000
C    -2.378000000     2.989000000    -6.358000000
H    -1.952000000     2.939000000    -7.357000000
C    -2.834000000     1.817000000    -5.746000000
H    -2.828000000     0.849000000    -6.239000000
C    -3.409000000     1.868000000    -4.479000000
O    -3.935000000     0.711000000    -3.920000000
C    -3.348000000    -0.540000000    -4.125000000
C    -4.085000000    -1.722000000    -4.095000000
H    -5.172000000    -1.687000000    -4.093000000
C    -3.386000000    -2.930000000    -4.138000000
O    -4.117000000    -4.079000000    -4.200000000
C    -3.976000000    -5.071000000    -3.231000000
C    -4.102000000    -4.866000000    -1.812000000
H    -4.315000000    -3.879000000    -1.410000000
C    -3.569000000    -6.324000000    -3.721000000
H    -3.478000000    -6.515000000    -4.788000000
C    -3.360000000    -7.375000000    -2.848000000
H    -3.000000000    -8.300000000    -3.292000000
C    -3.575000000    -7.195000000    -1.480000000
H    -3.406000000    -8.029000000    -0.804000000
C    -3.972000000    -6.010000000    -0.973000000
O    -4.232000000    -5.875000000     0.387000000
C    -3.315000000    -5.246000000     1.227000000
C    -3.759000000    -4.712000000     2.447000000
H    -4.817000000    -4.868000000     2.644000000
C    -2.974000000    -3.946000000     3.254000000
O    -3.514000000    -3.464000000     4.417000000
C    -2.816000000    -2.687000000     5.314000000
C    -3.039000000    -1.294000000     5.345000000
H    -3.680000000    -0.848000000     4.589000000
C    -2.094000000    -3.386000000     6.263000000
H    -1.962000000    -4.465000000     6.281000000
C    -1.520000000    -2.618000000     7.262000000
H    -0.954000000    -3.216000000     7.972000000
C    -1.655000000    -1.244000000     7.285000000
H    -1.142000000    -0.735000000     8.097000000
C    -2.395000000    -0.582000000     6.334000000
O    -2.401000000     0.793000000     6.482000000
C    -1.571000000     1.549000000     5.618000000
C    -1.847000000     2.877000000     5.470000000
H    -2.758000000     3.363000000     5.810000000
C    -1.178000000     3.660000000     4.524000000
O    -1.593000000     4.978000000     4.358000000
C    -0.916000000     5.914000000     3.558000000
C    -0.069000000     6.808000000     4.268000000
H     0.119000000     6.695000000     5.332000000
C     0.590000000     7.917000000     3.600000000
H     1.217000000     8.622000000     4.141000000
C     0.400000000     7.983000000     2.194000000
H     0.901000000     8.819000000     1.715000000
C    -0.455000000     7.076000000     1.560000000
C    -1.019000000     6.010000000     2.205000000
H    -1.587000000     5.295000000     1.615000000
C    -2.916000000     0.008000000    -0.424000000
H    -3.883000000    -0.400000000    -0.140000000
C    -1.948000000    -0.936000000    -0.606000000
H    -2.332000000    -1.947000000    -0.721000000
C    -0.637000000    -0.685000000    -0.767000000
H     0.141000000    -1.409000000    -0.784000000
C    -0.277000000     0.709000000    -0.721000000
H     0.779000000     0.958000000    -0.785000000
C    -1.236000000     1.721000000    -0.518000000
H    -0.967000000     2.774000000    -0.543000000
C    -2.591000000     1.374000000    -0.329000000
C    -3.762000000     2.338000000    -0.078000000
O    -3.635000000     3.445000000     0.405000000
O    -4.859000000     1.886000000    -0.188000000
O    -5.025000000     5.744000000    -0.055000000
H    -4.792000000     6.224000000     0.740000000
H    -4.587000000     4.898000000     0.038000000
O    -9.303000000    -0.273000000     1.080000000
H    -9.352000000    -0.988000000     0.445000000
H    -8.369000000    -0.183000000     1.267000000
O    -4.183000000     6.935000000     2.199000000
H    -4.086000000     6.126000000     2.702000000
H    -5.079000000     7.221000000     2.377000000
O    -3.959000000     4.024000000     2.929000000
H    -4.884000000     4.183000000     2.741000000
H    -3.597000000     3.711000000     2.100000000
O    -7.139000000     3.107000000     0.035000000
H    -6.249000000     2.758000000     0.069000000
H    -7.025000000     4.038000000    -0.154000000
O    -5.444000000     9.143000000    -0.119000000
H    -6.202000000     9.602000000    -0.480000000
H    -5.790000000     8.295000000     0.161000000
O    -4.597000000     5.621000000     5.040000000
H    -5.268000000     4.959000000     5.206000000
H    -3.942000000     5.170000000     4.507000000
O    -6.878000000     4.114000000     2.969000000
H    -6.829000000     3.658000000     2.129000000
H    -7.584000000     3.673000000     3.440000000
O    -6.303000000     1.537000000     3.846000000
H    -7.092000000     1.792000000     4.324000000
H    -5.672000000     2.232000000     4.036000000
O    -6.274000000     0.205000000     1.447000000
H    -5.730000000     0.764000000     0.891000000
H    -6.240000000     0.620000000     2.309000000
O    -7.476000000     5.238000000     5.305000000
H    -6.977000000     5.410000000     4.507000000
H    -8.378000000     5.129000000     5.005000000
O    -6.942000000    -2.288000000     1.000000000
H    -6.580000000    -1.405000000     1.069000000
H    -6.976000000    -2.604000000     1.903000000
O    -7.411000000    -2.489000000    -1.585000000
H    -6.918000000    -1.725000000    -1.886000000
H    -7.151000000    -2.596000000    -0.670000000
O    -6.122000000    -0.136000000    -2.287000000
H    -5.815000000     0.082000000    -1.407000000
H    -5.428000000     0.178000000    -2.867000000
O    -6.076000000     6.532000000    -2.393000000
H    -6.927000000     6.248000000    -2.059000000
H    -5.466000000     6.352000000    -1.677000000
O    -8.062000000     6.120000000    -0.600000000
H    -8.452000000     6.579000000     0.144000000
H    -8.808000000     5.876000000    -1.148000000
O    -7.231000000    -0.312000000    -5.245000000
H    -7.681000000     0.525000000    -5.362000000
H    -7.223000000    -0.449000000    -4.298000000
O    -6.897000000     3.781000000    -3.954000000
H    -6.405000000     3.350000000    -4.652000000
H    -6.248000000     4.317000000    -3.498000000
O    -9.369000000     1.721000000    -0.929000000
H    -8.495000000     2.062000000    -0.739000000
H    -9.288000000     0.775000000    -0.804000000
