215
-1453.14342
C    -2.461000000    -3.047000000    -3.678000000
H    -2.027000000    -4.004000000    -3.401000000
C    -1.750000000    -1.876000000    -3.892000000
C    -2.416000000    -0.645000000    -4.157000000
H    -1.852000000     0.280000000    -4.246000000
C    -0.257000000    -1.739000000    -3.573000000
O     0.297000000    -3.064000000    -3.777000000
H    -0.102000000    -1.402000000    -2.537000000
O     0.434000000    -0.968000000    -4.565000000
C     1.525000000    -0.287000000    -4.073000000
C     1.313000000     1.083000000    -3.908000000
H     0.364000000     1.556000000    -4.144000000
C     2.361000000     1.851000000    -3.438000000
O     1.990000000     3.166000000    -3.149000000
C     3.562000000     1.299000000    -2.978000000
C     4.698000000     2.114000000    -2.347000000
H     5.692000000     1.683000000    -2.486000000
C     4.518000000     2.347000000    -0.852000000
C     5.081000000     1.393000000    -0.044000000
H     5.743000000     0.662000000    -0.501000000
H     4.672000000     3.085000000    -2.847000000
C     3.602000000    -0.093000000    -2.917000000
H     4.407000000    -0.615000000    -2.408000000
C     2.709000000    -0.875000000    -3.685000000
C     3.002000000    -2.369000000    -3.939000000
H     4.050000000    -2.602000000    -4.137000000
H     2.443000000    -2.604000000    -4.847000000
C     2.506000000    -3.205000000    -2.814000000
C     3.317000000    -3.610000000    -1.733000000
H     4.363000000    -3.315000000    -1.718000000
C     1.171000000    -3.537000000    -2.734000000
C     0.659000000    -4.328000000    -1.775000000
H    -0.387000000    -4.622000000    -1.814000000
C     1.406000000    -4.653000000    -0.695000000
O     0.789000000    -5.123000000     0.380000000
C     0.358000000    -4.223000000     1.456000000
C    -1.027000000    -4.631000000     1.921000000
C    -1.596000000    -3.907000000     2.984000000
H    -0.988000000    -3.120000000     3.421000000
C    -1.886000000    -5.428000000     1.097000000
H    -1.585000000    -5.775000000     0.112000000
O     1.357000000    -4.071000000     2.629000000
H     0.364000000    -3.218000000     1.008000000
C     2.780000000    -4.226000000    -0.641000000
C     3.599000000    -4.335000000     0.596000000
H     4.670000000    -4.413000000     0.401000000
H     3.527000000    -5.207000000     1.250000000
C     3.341000000    -3.136000000     1.523000000
C     4.233000000    -2.039000000     1.454000000
H     4.916000000    -2.136000000     0.615000000
C     2.324000000    -3.103000000     2.499000000
C     2.261000000    -2.055000000     3.383000000
H     1.444000000    -2.002000000     4.099000000
C     3.080000000    -0.973000000     3.226000000
O     2.692000000     0.112000000     3.944000000
C     2.349000000     1.360000000     3.193000000
C     1.155000000     2.060000000     3.798000000
C    -0.003000000     1.339000000     4.145000000
H     0.000000000     0.269000000     3.952000000
C     1.158000000     3.434000000     4.087000000
H     2.049000000     4.018000000     3.872000000
O     3.439000000     2.259000000     3.080000000
H     2.018000000     1.058000000     2.189000000
C     4.155000000    -0.943000000     2.318000000
C     5.135000000     0.155000000     2.214000000
H     6.083000000    -0.265000000     1.870000000
H     5.290000000     0.567000000     3.213000000
C     4.733000000     1.330000000     1.304000000
C     3.901000000     2.385000000     1.808000000
C     3.331000000     3.323000000     1.049000000
H     2.660000000     4.088000000     1.433000000
C     3.549000000     3.251000000    -0.304000000
O     2.810000000     4.037000000    -1.045000000
C     1.704000000     3.474000000    -1.735000000
H     1.530000000     2.499000000    -1.256000000
C     0.504000000     4.318000000    -1.568000000
C    -0.703000000     3.897000000    -2.191000000
H    -0.736000000     2.958000000    -2.738000000
C     0.499000000     5.389000000    -0.690000000
H     1.443000000     5.637000000    -0.211000000
C    -0.641000000     6.113000000    -0.462000000
O    -0.670000000     7.223000000     0.441000000
C    -1.769000000     5.950000000    -1.271000000
H    -2.631000000     6.611000000    -1.241000000
C    -1.824000000     4.819000000    -2.125000000
O    -2.973000000     4.662000000    -2.854000000
C    -3.067000000     3.795000000    -3.927000000
C    -3.899000000     2.665000000    -3.900000000
H    -4.463000000     2.432000000    -3.001000000
C    -2.220000000     4.034000000    -5.066000000
H    -1.641000000     4.941000000    -5.211000000
C    -2.115000000     3.064000000    -6.082000000
H    -1.542000000     3.356000000    -6.959000000
C    -3.019000000     1.961000000    -6.022000000
H    -2.954000000     1.254000000    -6.846000000
C    -3.877000000     1.783000000    -4.936000000
O    -4.464000000     0.516000000    -4.713000000
C    -3.763000000    -0.573000000    -4.348000000
C    -4.489000000    -1.760000000    -4.169000000
H    -5.573000000    -1.683000000    -4.196000000
C    -3.892000000    -2.946000000    -3.762000000
O    -4.651000000    -4.073000000    -3.525000000
C    -4.147000000    -5.190000000    -2.823000000
C    -4.232000000    -5.113000000    -1.406000000
H    -4.253000000    -4.163000000    -0.877000000
C    -4.100000000    -6.367000000    -3.483000000
H    -4.063000000    -6.342000000    -4.569000000
C    -4.013000000    -7.608000000    -2.765000000
H    -4.082000000    -8.608000000    -3.184000000
C    -3.969000000    -7.507000000    -1.379000000
H    -3.920000000    -8.428000000    -0.804000000
C    -4.207000000    -6.321000000    -0.657000000
O    -4.030000000    -6.300000000     0.711000000
C    -3.248000000    -5.468000000     1.436000000
C    -3.770000000    -4.900000000     2.606000000
H    -4.784000000    -5.121000000     2.930000000
C    -2.951000000    -4.029000000     3.352000000
O    -3.567000000    -3.266000000     4.273000000
C    -2.959000000    -2.304000000     5.061000000
C    -2.973000000    -0.990000000     4.630000000
H    -3.285000000    -0.699000000     3.630000000
C    -2.565000000    -2.560000000     6.395000000
H    -2.735000000    -3.573000000     6.752000000
C    -2.014000000    -1.619000000     7.192000000
H    -1.688000000    -1.781000000     8.216000000
C    -1.994000000    -0.289000000     6.733000000
H    -1.557000000     0.491000000     7.350000000
C    -2.380000000    -0.006000000     5.411000000
O    -2.315000000     1.346000000     5.035000000
C    -1.155000000     2.002000000     4.678000000
C    -1.184000000     3.379000000     4.691000000
H    -2.078000000     3.904000000     5.018000000
C     0.037000000     4.116000000     4.520000000
O     0.055000000     5.477000000     4.865000000
C     0.137000000     6.515000000     3.962000000
C     0.529000000     7.776000000     4.424000000
H     0.939000000     7.961000000     5.414000000
C     0.687000000     8.801000000     3.474000000
H     0.993000000     9.797000000     3.782000000
C     0.294000000     8.576000000     2.137000000
H     0.226000000     9.465000000     1.515000000
C    -0.062000000     7.305000000     1.693000000
C    -0.209000000     6.295000000     2.609000000
H    -0.569000000     5.320000000     2.292000000
C    -2.768000000    -0.723000000     0.583000000
H    -3.704000000    -1.276000000     0.615000000
C    -1.549000000    -1.422000000     0.171000000
H    -1.502000000    -2.506000000     0.112000000
C    -0.443000000    -0.710000000    -0.093000000
H     0.438000000    -1.314000000    -0.329000000
C    -0.345000000     0.677000000     0.037000000
H     0.639000000     1.130000000    -0.050000000
C    -1.511000000     1.359000000     0.487000000
H    -1.447000000     2.429000000     0.664000000
C    -2.688000000     0.685000000     0.722000000
C    -3.928000000     1.380000000     1.252000000
O    -3.998000000     2.597000000     1.373000000
O    -4.912000000     0.711000000     1.543000000
O    -5.221000000     4.410000000    -0.628000000
H    -5.492000000     5.227000000    -0.210000000
H    -4.664000000     3.981000000     0.022000000
O    -6.371000000    -1.965000000     4.964000000
H    -5.565000000    -2.150000000     4.482000000
H    -6.534000000    -2.760000000     5.472000000
O    -9.479000000    -1.359000000     1.389000000
H    -9.371000000    -1.581000000     0.464000000
H    -8.687000000    -0.870000000     1.612000000
O    -3.027000000     7.345000000     2.321000000
H    -3.181000000     8.277000000     2.473000000
H    -2.343000000     7.321000000     1.652000000
O    -3.955000000     4.731000000     3.342000000
H    -3.596000000     5.501000000     2.903000000
H    -3.794000000     4.010000000     2.733000000
O    -6.843000000     3.321000000     1.372000000
H    -6.850000000     4.201000000     1.749000000
H    -5.934000000     3.031000000     1.456000000
O    -7.098000000     6.023000000     2.429000000
H    -7.165000000     6.934000000     2.142000000
H    -6.949000000     6.080000000     3.373000000
O    -6.260000000     5.959000000     4.975000000
H    -6.532000000     5.089000000     5.267000000
H    -5.410000000     5.817000000     4.559000000
O    -9.322000000     3.200000000     3.618000000
H    -9.306000000     3.091000000     4.569000000
H    -8.400000000     3.197000000     3.361000000
O    -4.812000000     1.261000000     7.128000000
H    -5.559000000     0.663000000     7.102000000
H    -4.594000000     1.412000000     6.208000000
O    -4.978000000     1.933000000     4.329000000
H    -5.186000000     1.598000000     3.457000000
H    -4.264000000     2.554000000     4.184000000
O    -7.241000000    -0.294000000     2.588000000
H    -6.645000000     0.340000000     2.190000000
H    -7.202000000    -0.104000000     3.525000000
O    -7.098000000    -3.064000000     1.621000000
H    -6.616000000    -2.416000000     2.135000000
H    -7.929000000    -3.167000000     2.084000000
O    -8.741000000    -1.646000000    -1.570000000
H    -7.988000000    -1.120000000    -1.301000000
H    -8.427000000    -2.549000000    -1.535000000
O    -5.871000000    -0.293000000    -0.896000000
H    -5.626000000    -0.374000000     0.026000000
H    -5.062000000    -0.033000000    -1.336000000
O    -7.304000000     4.509000000    -2.660000000
H    -7.798000000     3.707000000    -2.492000000
H    -6.561000000     4.464000000    -2.058000000
O    -8.874000000     5.431000000     0.149000000
H    -8.465000000     5.546000000     1.007000000
H    -9.530000000     4.748000000     0.286000000
O    -6.724000000     3.598000000     5.828000000
H    -6.312000000     3.016000000     5.189000000
H    -7.537000000     3.154000000     6.067000000
O    -7.990000000     2.086000000    -0.868000000
H    -7.569000000     1.228000000    -0.911000000
H    -7.605000000     2.504000000    -0.098000000
