215
-1435.57134
C    -2.707000000    -2.968000000    -3.172000000
H    -2.416000000    -3.931000000    -2.761000000
C    -1.728000000    -2.037000000    -3.540000000
C    -2.248000000    -0.797000000    -3.960000000
H    -1.544000000     0.031000000    -3.996000000
C    -0.244000000    -2.162000000    -3.367000000
O     0.093000000    -3.580000000    -3.285000000
H    -0.177000000    -1.747000000    -2.350000000
O     0.611000000    -1.354000000    -4.294000000
C     1.782000000    -0.790000000    -3.789000000
C     1.789000000     0.603000000    -3.709000000
H     0.897000000     1.146000000    -4.011000000
C     2.883000000     1.357000000    -3.279000000
O     2.813000000     2.745000000    -3.210000000
C     3.974000000     0.682000000    -2.735000000
C     5.087000000     1.382000000    -2.170000000
H     5.965000000     0.735000000    -2.226000000
C     4.838000000     1.785000000    -0.760000000
C     5.111000000     0.897000000     0.301000000
H     5.850000000     0.103000000     0.229000000
H     5.366000000     2.263000000    -2.752000000
C     3.958000000    -0.704000000    -2.706000000
H     4.797000000    -1.225000000    -2.251000000
C     2.958000000    -1.453000000    -3.306000000
C     3.028000000    -2.970000000    -3.394000000
H     4.046000000    -3.330000000    -3.555000000
H     2.481000000    -3.296000000    -4.282000000
C     2.331000000    -3.595000000    -2.196000000
C     3.046000000    -3.919000000    -1.009000000
H     4.064000000    -3.635000000    -0.755000000
C     0.984000000    -3.960000000    -2.307000000
C     0.431000000    -4.716000000    -1.233000000
H    -0.554000000    -5.171000000    -1.293000000
C     1.038000000    -4.887000000    -0.012000000
O     0.257000000    -5.285000000     1.079000000
C    -0.131000000    -4.303000000     2.028000000
C    -1.604000000    -4.329000000     2.463000000
C    -1.954000000    -3.811000000     3.674000000
H    -1.217000000    -3.237000000     4.230000000
C    -2.581000000    -4.977000000     1.655000000
H    -2.278000000    -5.336000000     0.674000000
O     0.848000000    -4.141000000     3.125000000
H    -0.044000000    -3.355000000     1.477000000
C     2.353000000    -4.435000000     0.098000000
C     3.040000000    -4.604000000     1.424000000
H     4.095000000    -4.858000000     1.302000000
H     2.614000000    -5.434000000     1.992000000
C     2.902000000    -3.324000000     2.180000000
C     3.879000000    -2.292000000     2.021000000
H     4.785000000    -2.605000000     1.508000000
C     1.780000000    -3.158000000     2.960000000
C     1.547000000    -1.883000000     3.550000000
H     0.727000000    -1.790000000     4.258000000
C     2.490000000    -0.857000000     3.309000000
O     2.082000000     0.404000000     3.758000000
C     1.885000000     1.517000000     2.862000000
C     0.645000000     2.312000000     3.291000000
C    -0.586000000     1.651000000     3.525000000
H    -0.553000000     0.566000000     3.473000000
C     0.550000000     3.704000000     3.224000000
H     1.415000000     4.352000000     3.109000000
O     3.045000000     2.230000000     2.934000000
H     1.842000000     1.065000000     1.860000000
C     3.668000000    -1.014000000     2.612000000
C     4.813000000     0.038000000     2.626000000
H     5.755000000    -0.508000000     2.543000000
H     4.692000000     0.461000000     3.626000000
C     4.622000000     1.079000000     1.537000000
C     3.827000000     2.182000000     1.814000000
C     3.785000000     3.244000000     0.910000000
H     3.304000000     4.209000000     1.050000000
C     4.232000000     3.054000000    -0.419000000
O     3.620000000     3.820000000    -1.403000000
C     2.395000000     3.351000000    -1.948000000
H     1.974000000     2.585000000    -1.280000000
C     1.340000000     4.452000000    -2.138000000
C     0.288000000     4.227000000    -3.039000000
H     0.369000000     3.345000000    -3.669000000
C     1.449000000     5.701000000    -1.464000000
H     2.287000000     5.809000000    -0.781000000
C     0.343000000     6.600000000    -1.574000000
O     0.240000000     7.663000000    -0.734000000
C    -0.707000000     6.300000000    -2.445000000
H    -1.468000000     7.052000000    -2.635000000
C    -0.725000000     5.148000000    -3.220000000
O    -1.747000000     4.942000000    -4.138000000
C    -1.959000000     3.787000000    -4.774000000
C    -2.793000000     2.776000000    -4.229000000
H    -3.083000000     2.765000000    -3.182000000
C    -1.413000000     3.666000000    -6.052000000
H    -0.859000000     4.497000000    -6.481000000
C    -1.825000000     2.603000000    -6.880000000
H    -1.582000000     2.453000000    -7.929000000
C    -2.746000000     1.655000000    -6.323000000
H    -3.051000000     0.734000000    -6.813000000
C    -3.236000000     1.776000000    -5.029000000
O    -4.062000000     0.766000000    -4.482000000
C    -3.564000000    -0.469000000    -4.086000000
C    -4.407000000    -1.527000000    -3.935000000
H    -5.487000000    -1.500000000    -4.049000000
C    -4.029000000    -2.746000000    -3.428000000
O    -4.973000000    -3.747000000    -3.220000000
C    -4.976000000    -4.808000000    -2.327000000
C    -4.998000000    -4.639000000    -0.936000000
H    -5.002000000    -3.596000000    -0.630000000
C    -5.187000000    -6.070000000    -2.829000000
H    -5.324000000    -6.235000000    -3.894000000
C    -5.126000000    -7.131000000    -1.910000000
H    -5.363000000    -8.114000000    -2.308000000
C    -4.953000000    -6.953000000    -0.558000000
H    -4.924000000    -7.819000000     0.099000000
C    -4.934000000    -5.696000000    -0.055000000
O    -4.877000000    -5.632000000     1.339000000
C    -3.926000000    -4.993000000     2.091000000
C    -4.310000000    -4.340000000     3.286000000
H    -5.333000000    -4.387000000     3.653000000
C    -3.306000000    -3.792000000     4.076000000
O    -3.645000000    -3.146000000     5.229000000
C    -3.047000000    -1.910000000     5.547000000
C    -3.273000000    -0.802000000     4.758000000
H    -3.895000000    -0.841000000     3.867000000
C    -2.236000000    -1.824000000     6.697000000
H    -2.058000000    -2.670000000     7.356000000
C    -1.498000000    -0.646000000     6.979000000
H    -0.834000000    -0.563000000     7.837000000
C    -1.767000000     0.489000000     6.215000000
H    -1.167000000     1.349000000     6.501000000
C    -2.657000000     0.418000000     5.056000000
O    -2.806000000     1.519000000     4.266000000
C    -1.759000000     2.231000000     3.850000000
C    -1.805000000     3.613000000     3.809000000
H    -2.688000000     4.098000000     4.217000000
C    -0.665000000     4.345000000     3.395000000
O    -0.777000000     5.710000000     3.434000000
C     0.045000000     6.553000000     2.758000000
C     0.908000000     7.416000000     3.355000000
H     0.855000000     7.455000000     4.440000000
C     1.722000000     8.324000000     2.603000000
H     2.485000000     8.908000000     3.112000000
C     1.541000000     8.366000000     1.210000000
H     2.258000000     9.050000000     0.763000000
C     0.606000000     7.547000000     0.620000000
C    -0.129000000     6.652000000     1.353000000
H    -0.876000000     6.061000000     0.829000000
C    -2.320000000    -0.872000000     0.212000000
H    -3.184000000    -1.528000000     0.149000000
C    -1.133000000    -1.424000000    -0.216000000
H    -0.974000000    -2.395000000    -0.676000000
C    -0.001000000    -0.609000000    -0.187000000
H     0.967000000    -0.913000000    -0.494000000
C    -0.079000000     0.736000000     0.130000000
H     0.794000000     1.376000000     0.034000000
C    -1.325000000     1.274000000     0.467000000
H    -1.382000000     2.359000000     0.494000000
C    -2.423000000     0.455000000     0.625000000
C    -3.789000000     1.074000000     0.852000000
O    -3.925000000     2.283000000     0.777000000
O    -4.793000000     0.318000000     0.967000000
O    -3.953000000     4.170000000    -1.085000000
H    -3.602000000     4.906000000    -0.584000000
H    -4.123000000     3.494000000    -0.430000000
O    -6.857000000    -1.964000000     4.482000000
H    -7.210000000    -1.193000000     4.925000000
H    -6.711000000    -2.598000000     5.183000000
O    -8.361000000    -0.484000000     0.624000000
H    -7.601000000    -0.943000000     0.983000000
H    -8.666000000    -1.047000000    -0.088000000
O    -3.594000000     6.655000000     0.476000000
H    -3.463000000     7.420000000     1.037000000
H    -4.228000000     6.945000000    -0.180000000
O    -4.913000000     4.365000000     1.773000000
H    -4.472000000     5.091000000     1.330000000
H    -4.332000000     3.616000000     1.640000000
O    -7.539000000     3.875000000     1.572000000
H    -6.619000000     4.004000000     1.800000000
H    -7.529000000     3.176000000     0.919000000
O    -5.813000000     6.290000000     3.660000000
H    -5.461000000     5.791000000     4.398000000
H    -5.944000000     5.638000000     2.971000000
O   -10.283000000     1.415000000     1.391000000
H   -10.285000000     2.185000000     1.958000000
H    -9.496000000     0.933000000     1.646000000
O    -6.357000000     1.050000000     2.900000000
H    -5.776000000     0.944000000     2.147000000
H    -5.959000000     1.752000000     3.414000000
O    -6.282000000    -1.744000000     1.823000000
H    -5.571000000    -1.127000000     1.647000000
H    -6.343000000    -1.773000000     2.778000000
O    -7.869000000    -4.663000000     1.624000000
H    -7.330000000    -3.885000000     1.770000000
H    -8.143000000    -4.932000000     2.501000000
O    -8.460000000    -2.036000000    -2.872000000
H    -7.874000000    -1.364000000    -2.524000000
H    -8.445000000    -2.731000000    -2.213000000
O    -6.473000000    -0.555000000    -1.889000000
H    -6.360000000    -0.344000000    -0.962000000
H    -5.703000000    -0.181000000    -2.315000000
O    -6.435000000     4.543000000    -2.667000000
H    -6.986000000     4.926000000    -1.984000000
H    -5.568000000     4.479000000    -2.266000000
O    -7.924000000     5.672000000    -0.588000000
H    -7.886000000     6.573000000    -0.269000000
H    -7.845000000     5.135000000     0.201000000
O    -6.470000000     3.212000000     5.049000000
H    -6.017000000     2.861000000     5.815000000
H    -7.352000000     3.411000000     5.363000000
O    -6.919000000     1.741000000    -0.267000000
H    -7.462000000     1.023000000     0.060000000
H    -6.083000000     1.634000000     0.187000000
O    -8.102000000     2.170000000    -3.006000000
H    -8.468000000     3.052000000    -2.936000000
H    -7.268000000     2.220000000    -2.538000000
O    -8.937000000     0.614000000     3.761000000
H    -8.045000000     0.680000000     3.421000000
H    -8.836000000     0.197000000     4.617000000
