215
-1450.07017
C    -2.782000000    -3.378000000    -3.607000000
H    -2.424000000    -4.402000000    -3.541000000
C    -1.835000000    -2.330000000    -3.869000000
C    -2.354000000    -1.006000000    -3.992000000
H    -1.713000000    -0.139000000    -4.131000000
C    -0.314000000    -2.498000000    -3.620000000
O     0.175000000    -3.866000000    -3.503000000
H    -0.042000000    -1.986000000    -2.685000000
O     0.469000000    -1.888000000    -4.679000000
C     1.462000000    -1.067000000    -4.274000000
C     1.240000000     0.316000000    -4.314000000
H     0.299000000     0.792000000    -4.578000000
C     2.172000000     1.163000000    -3.785000000
O     1.742000000     2.433000000    -3.583000000
C     3.371000000     0.692000000    -3.278000000
C     4.431000000     1.579000000    -2.619000000
H     5.364000000     1.047000000    -2.816000000
C     4.180000000     1.768000000    -1.161000000
C     4.912000000     1.053000000    -0.164000000
H     5.570000000     0.246000000    -0.476000000
H     4.342000000     2.484000000    -3.223000000
C     3.582000000    -0.705000000    -3.284000000
H     4.520000000    -1.086000000    -2.888000000
C     2.626000000    -1.550000000    -3.762000000
C     2.946000000    -3.018000000    -3.777000000
H     4.032000000    -3.124000000    -3.756000000
H     2.541000000    -3.660000000    -4.562000000
C     2.390000000    -3.719000000    -2.552000000
C     3.169000000    -3.747000000    -1.383000000
H     4.183000000    -3.359000000    -1.330000000
C     1.106000000    -4.206000000    -2.529000000
C     0.618000000    -4.678000000    -1.350000000
H    -0.402000000    -5.053000000    -1.353000000
C     1.332000000    -4.625000000    -0.186000000
O     0.694000000    -5.057000000     0.998000000
C     0.363000000    -3.968000000     1.842000000
C    -1.143000000    -3.970000000     2.300000000
C    -1.537000000    -3.091000000     3.352000000
H    -0.830000000    -2.472000000     3.898000000
C    -2.100000000    -4.800000000     1.706000000
H    -1.828000000    -5.307000000     0.783000000
O     1.305000000    -3.905000000     2.916000000
H     0.496000000    -3.024000000     1.295000000
C     2.653000000    -4.208000000    -0.154000000
C     3.557000000    -4.276000000     1.115000000
H     4.593000000    -4.209000000     0.778000000
H     3.301000000    -5.092000000     1.795000000
C     3.379000000    -3.076000000     1.975000000
C     4.256000000    -1.988000000     1.879000000
H     5.106000000    -1.992000000     1.201000000
C     2.309000000    -3.004000000     2.876000000
C     2.095000000    -1.781000000     3.532000000
H     1.182000000    -1.693000000     4.115000000
C     2.926000000    -0.711000000     3.424000000
O     2.505000000     0.418000000     4.090000000
C     2.100000000     1.568000000     3.355000000
C     1.125000000     2.465000000     4.036000000
C     0.205000000     1.838000000     4.848000000
H     0.307000000     0.767000000     5.002000000
C     0.977000000     3.798000000     3.737000000
H     1.721000000     4.279000000     3.107000000
O     3.210000000     2.375000000     2.811000000
H     1.558000000     1.236000000     2.456000000
C     4.064000000    -0.789000000     2.591000000
C     5.056000000     0.339000000     2.344000000
H     5.969000000    -0.173000000     2.032000000
H     5.116000000     0.864000000     3.300000000
C     4.574000000     1.266000000     1.174000000
C     3.591000000     2.234000000     1.509000000
C     3.034000000     3.003000000     0.505000000
H     2.380000000     3.811000000     0.822000000
C     3.238000000     2.727000000    -0.821000000
O     2.648000000     3.619000000    -1.693000000
C     1.471000000     3.069000000    -2.344000000
H     1.074000000     2.310000000    -1.654000000
C     0.428000000     4.207000000    -2.423000000
C    -0.542000000     4.164000000    -3.431000000
H    -0.691000000     3.338000000    -4.122000000
C     0.429000000     5.238000000    -1.487000000
H     1.097000000     5.258000000    -0.629000000
C    -0.648000000     6.173000000    -1.427000000
O    -0.752000000     7.275000000    -0.548000000
C    -1.591000000     6.127000000    -2.463000000
H    -2.424000000     6.816000000    -2.349000000
C    -1.561000000     5.131000000    -3.468000000
O    -2.545000000     5.021000000    -4.380000000
C    -3.048000000     3.778000000    -4.866000000
C    -3.574000000     2.755000000    -4.112000000
H    -3.840000000     2.827000000    -3.060000000
C    -2.826000000     3.624000000    -6.237000000
H    -2.184000000     4.354000000    -6.724000000
C    -3.143000000     2.464000000    -6.883000000
H    -2.968000000     2.419000000    -7.955000000
C    -3.659000000     1.401000000    -6.137000000
H    -3.835000000     0.427000000    -6.586000000
C    -3.872000000     1.542000000    -4.787000000
O    -4.270000000     0.569000000    -3.942000000
C    -3.746000000    -0.788000000    -3.884000000
C    -4.667000000    -1.807000000    -3.602000000
H    -5.723000000    -1.575000000    -3.488000000
C    -4.177000000    -3.087000000    -3.458000000
O    -5.114000000    -4.073000000    -3.106000000
C    -4.716000000    -4.984000000    -2.144000000
C    -4.644000000    -4.668000000    -0.782000000
H    -4.797000000    -3.656000000    -0.415000000
C    -4.330000000    -6.240000000    -2.559000000
H    -4.275000000    -6.417000000    -3.630000000
C    -4.037000000    -7.215000000    -1.659000000
H    -3.866000000    -8.223000000    -2.030000000
C    -4.089000000    -6.971000000    -0.248000000
H    -3.928000000    -7.758000000     0.485000000
C    -4.335000000    -5.691000000     0.139000000
O    -4.463000000    -5.450000000     1.505000000
C    -3.441000000    -4.759000000     2.084000000
C    -3.759000000    -3.956000000     3.161000000
H    -4.782000000    -3.966000000     3.529000000
C    -2.823000000    -3.146000000     3.848000000
O    -3.215000000    -2.490000000     5.043000000
C    -2.401000000    -1.716000000     5.814000000
C    -2.418000000    -0.321000000     5.606000000
H    -2.965000000     0.010000000     4.727000000
C    -1.711000000    -2.135000000     6.961000000
H    -1.688000000    -3.199000000     7.186000000
C    -1.017000000    -1.228000000     7.784000000
H    -0.530000000    -1.581000000     8.690000000
C    -1.115000000     0.143000000     7.513000000
H    -0.720000000     0.868000000     8.220000000
C    -1.805000000     0.572000000     6.447000000
O    -1.804000000     1.945000000     6.176000000
C    -0.943000000     2.544000000     5.320000000
C    -1.020000000     3.968000000     5.041000000
H    -1.932000000     4.514000000     5.268000000
C    -0.002000000     4.625000000     4.286000000
O    -0.063000000     5.989000000     4.030000000
C     0.441000000     6.504000000     2.870000000
C     1.513000000     7.411000000     2.936000000
H     1.942000000     7.578000000     3.921000000
C     1.860000000     8.215000000     1.844000000
H     2.669000000     8.940000000     1.856000000
C     1.130000000     8.112000000     0.686000000
H     1.425000000     8.709000000    -0.173000000
C    -0.015000000     7.298000000     0.673000000
C    -0.318000000     6.464000000     1.688000000
H    -1.209000000     5.843000000     1.653000000
C    -2.320000000    -0.871000000     0.464000000
H    -3.190000000    -1.516000000     0.565000000
C    -1.177000000    -1.434000000    -0.078000000
H    -1.167000000    -2.490000000    -0.332000000
C    -0.004000000    -0.708000000    -0.145000000
H     0.964000000    -1.112000000    -0.516000000
C    -0.034000000     0.610000000     0.291000000
H     0.872000000     1.210000000     0.328000000
C    -1.165000000     1.202000000     0.757000000
H    -1.122000000     2.238000000     1.085000000
C    -2.326000000     0.450000000     0.886000000
C    -3.621000000     1.010000000     1.415000000
O    -3.744000000     2.207000000     1.610000000
O    -4.681000000     0.385000000     1.481000000
O    -4.904000000     4.400000000     0.501000000
H    -5.309000000     4.296000000    -0.361000000
H    -4.368000000     3.615000000     0.610000000
O    -9.213000000     1.946000000     3.421000000
H    -9.080000000     1.562000000     2.554000000
H    -9.330000000     1.193000000     4.000000000
O    -9.127000000     0.822000000     0.734000000
H    -8.356000000     1.381000000     0.637000000
H    -9.381000000     0.607000000    -0.163000000
O    -6.519000000     6.179000000     1.719000000
H    -6.976000000     6.732000000     1.085000000
H    -5.885000000     5.689000000     1.195000000
O    -4.502000000     3.224000000     4.522000000
H    -4.097000000     2.523000000     4.010000000
H    -4.566000000     2.867000000     5.408000000
O    -6.640000000     0.619000000    -2.226000000
H    -7.172000000     1.035000000    -2.904000000
H    -5.875000000     0.284000000    -2.694000000
O    -3.966000000     5.471000000     2.970000000
H    -4.406000000     4.949000000     2.299000000
H    -4.147000000     5.010000000     3.789000000
O    -7.202000000     3.965000000     4.144000000
H    -6.260000000     4.032000000     4.305000000
H    -7.331000000     3.062000000     3.853000000
O    -5.684000000    -0.722000000     3.716000000
H    -5.436000000     0.052000000     3.211000000
H    -4.869000000    -1.012000000     4.126000000
O    -7.617000000    -2.167000000     2.269000000
H    -7.372000000    -1.930000000     1.375000000
H    -6.939000000    -1.770000000     2.816000000
O    -5.148000000     1.902000000     7.094000000
H    -4.660000000     2.328000000     7.799000000
H    -5.683000000     1.243000000     7.536000000
O    -8.345000000    -2.909000000    -0.717000000
H    -7.593000000    -2.386000000    -0.442000000
H    -8.238000000    -3.743000000    -0.259000000
O    -6.388000000    -1.134000000     0.125000000
H    -5.732000000    -0.764000000     0.716000000
H    -6.470000000    -0.489000000    -0.577000000
O    -6.449000000     3.562000000    -1.866000000
H    -7.376000000     3.727000000    -1.698000000
H    -6.429000000     2.697000000    -2.276000000
O    -9.400000000     4.140000000     1.497000000
H    -8.898000000     4.913000000     1.755000000
H    -9.010000000     3.423000000     1.997000000
O   -10.298000000    -1.408000000     1.772000000
H    -9.581000000    -1.703000000     2.334000000
H    -9.939000000    -0.655000000     1.301000000
O    -3.883000000     7.011000000    -0.588000000
H    -3.608000000     7.804000000    -0.128000000
H    -3.537000000     6.294000000    -0.057000000
O    -6.739000000     2.140000000     1.440000000
H    -6.448000000     3.044000000     1.325000000
H    -5.932000000     1.626000000     1.441000000
O    -5.880000000     6.490000000    -2.191000000
H    -5.240000000     6.289000000    -1.508000000
H    -5.967000000     5.675000000    -2.685000000
