215
-1465.75239
C    -3.110000000    -3.034000000    -3.247000000
H    -2.800000000    -3.930000000    -2.715000000
C    -2.233000000    -2.081000000    -3.784000000
C    -2.702000000    -0.822000000    -4.172000000
H    -1.939000000    -0.099000000    -4.447000000
C    -0.783000000    -2.297000000    -3.553000000
O    -0.445000000    -3.677000000    -3.308000000
H    -0.602000000    -1.810000000    -2.584000000
O     0.001000000    -1.680000000    -4.562000000
C     1.216000000    -1.035000000    -4.287000000
C     1.244000000     0.358000000    -4.137000000
H     0.331000000     0.903000000    -4.364000000
C     2.363000000     0.992000000    -3.747000000
O     2.322000000     2.368000000    -3.712000000
C     3.558000000     0.276000000    -3.399000000
C     4.752000000     1.025000000    -2.909000000
H     5.622000000     0.380000000    -3.046000000
C     4.492000000     1.385000000    -1.427000000
C     5.016000000     0.594000000    -0.405000000
H     5.419000000    -0.353000000    -0.757000000
H     4.905000000     1.918000000    -3.518000000
C     3.478000000    -1.125000000    -3.430000000
H     4.259000000    -1.673000000    -2.908000000
C     2.361000000    -1.777000000    -3.888000000
C     2.215000000    -3.343000000    -3.792000000
H     3.188000000    -3.817000000    -3.942000000
H     1.653000000    -3.621000000    -4.686000000
C     1.621000000    -3.726000000    -2.417000000
C     2.453000000    -3.905000000    -1.307000000
H     3.491000000    -3.602000000    -1.422000000
C     0.324000000    -4.021000000    -2.230000000
C    -0.204000000    -4.498000000    -1.036000000
H    -1.251000000    -4.785000000    -0.967000000
C     0.584000000    -4.620000000     0.096000000
O     0.037000000    -4.882000000     1.319000000
C    -0.115000000    -3.745000000     2.209000000
C    -1.529000000    -3.753000000     2.815000000
C    -1.955000000    -2.860000000     3.864000000
H    -1.226000000    -2.211000000     4.343000000
C    -2.592000000    -4.490000000     2.249000000
H    -2.284000000    -5.277000000     1.566000000
O     0.923000000    -3.750000000     3.157000000
H    -0.016000000    -2.809000000     1.640000000
C     1.971000000    -4.338000000    -0.084000000
C     2.912000000    -4.433000000     1.117000000
H     3.924000000    -4.605000000     0.746000000
H     2.608000000    -5.325000000     1.669000000
C     2.920000000    -3.163000000     1.907000000
C     3.886000000    -2.224000000     1.538000000
H     4.598000000    -2.378000000     0.731000000
C     2.001000000    -2.956000000     2.910000000
C     2.081000000    -1.754000000     3.623000000
H     1.372000000    -1.511000000     4.411000000
C     3.127000000    -0.821000000     3.339000000
O     2.954000000     0.430000000     3.871000000
C     2.480000000     1.534000000     3.073000000
C     1.438000000     2.376000000     3.776000000
C     0.564000000     1.831000000     4.744000000
H     0.587000000     0.796000000     5.077000000
C     1.388000000     3.780000000     3.594000000
H     2.074000000     4.180000000     2.853000000
O     3.612000000     2.274000000     2.571000000
H     2.004000000     1.025000000     2.222000000
C     4.017000000    -1.063000000     2.336000000
C     5.198000000    -0.066000000     2.021000000
H     6.069000000    -0.672000000     1.761000000
H     5.475000000     0.529000000     2.894000000
C     4.767000000     0.886000000     0.970000000
C     4.077000000     2.059000000     1.293000000
C     3.670000000     2.910000000     0.289000000
H     3.059000000     3.771000000     0.547000000
C     3.863000000     2.624000000    -1.040000000
O     3.194000000     3.427000000    -1.927000000
C     2.053000000     2.925000000    -2.466000000
H     1.652000000     2.147000000    -1.799000000
C     1.002000000     4.028000000    -2.438000000
C    -0.061000000     3.885000000    -3.388000000
H    -0.044000000     3.076000000    -4.114000000
C     0.919000000     5.092000000    -1.529000000
H     1.676000000     5.295000000    -0.776000000
C    -0.106000000     6.055000000    -1.583000000
O    -0.333000000     6.997000000    -0.602000000
C    -1.140000000     5.883000000    -2.499000000
H    -1.951000000     6.605000000    -2.545000000
C    -1.141000000     4.797000000    -3.400000000
O    -2.090000000     4.858000000    -4.421000000
C    -2.450000000     3.774000000    -5.122000000
C    -3.203000000     2.684000000    -4.575000000
H    -3.555000000     2.722000000    -3.547000000
C    -2.154000000     3.724000000    -6.499000000
H    -1.604000000     4.505000000    -7.018000000
C    -2.619000000     2.645000000    -7.318000000
H    -2.352000000     2.596000000    -8.370000000
C    -3.304000000     1.569000000    -6.696000000
H    -3.615000000     0.704000000    -7.275000000
C    -3.658000000     1.635000000    -5.373000000
O    -4.477000000     0.631000000    -4.804000000
C    -4.055000000    -0.573000000    -4.286000000
C    -4.882000000    -1.444000000    -3.645000000
H    -5.942000000    -1.208000000    -3.592000000
C    -4.445000000    -2.639000000    -3.127000000
O    -5.390000000    -3.455000000    -2.487000000
C    -5.075000000    -4.507000000    -1.658000000
C    -5.130000000    -4.313000000    -0.247000000
H    -5.392000000    -3.319000000     0.108000000
C    -4.784000000    -5.745000000    -2.181000000
H    -4.621000000    -5.849000000    -3.251000000
C    -4.365000000    -6.741000000    -1.244000000
H    -4.018000000    -7.711000000    -1.592000000
C    -4.473000000    -6.547000000     0.131000000
H    -4.230000000    -7.305000000     0.871000000
C    -4.837000000    -5.321000000     0.612000000
O    -4.974000000    -5.064000000     1.925000000
C    -3.962000000    -4.305000000     2.483000000
C    -4.303000000    -3.401000000     3.483000000
H    -5.355000000    -3.424000000     3.754000000
C    -3.301000000    -2.746000000     4.245000000
O    -3.660000000    -1.954000000     5.326000000
C    -2.779000000    -1.247000000     6.128000000
C    -2.437000000     0.065000000     5.801000000
H    -3.007000000     0.615000000     5.056000000
C    -2.078000000    -1.906000000     7.165000000
H    -2.277000000    -2.956000000     7.365000000
C    -1.163000000    -1.246000000     7.867000000
H    -0.660000000    -1.749000000     8.689000000
C    -0.676000000     0.032000000     7.511000000
H     0.076000000     0.631000000     8.019000000
C    -1.426000000     0.690000000     6.508000000
O    -1.281000000     2.049000000     6.281000000
C    -0.384000000     2.632000000     5.383000000
C    -0.442000000     3.990000000     5.158000000
H    -1.243000000     4.532000000     5.654000000
C     0.397000000     4.553000000     4.208000000
O     0.351000000     5.895000000     3.946000000
C     0.753000000     6.546000000     2.822000000
C     2.001000000     7.190000000     2.802000000
H     2.763000000     7.190000000     3.577000000
C     2.537000000     7.702000000     1.561000000
H     3.553000000     8.058000000     1.408000000
C     1.717000000     7.677000000     0.418000000
H     2.093000000     8.077000000    -0.520000000
C     0.447000000     7.068000000     0.494000000
C    -0.017000000     6.462000000     1.653000000
H    -0.963000000     5.928000000     1.614000000
C    -2.347000000    -0.840000000     0.697000000
H    -3.080000000    -1.635000000     0.808000000
C    -1.157000000    -1.186000000     0.114000000
H    -0.980000000    -2.190000000    -0.263000000
C    -0.146000000    -0.240000000     0.015000000
H     0.833000000    -0.420000000    -0.549000000
C    -0.319000000     0.986000000     0.724000000
H     0.504000000     1.696000000     0.717000000
C    -1.528000000     1.269000000     1.300000000
H    -1.612000000     2.278000000     1.695000000
C    -2.591000000     0.329000000     1.312000000
C    -3.949000000     0.713000000     1.877000000
O    -4.137000000     1.910000000     2.049000000
O    -4.812000000    -0.078000000     1.990000000
O    -4.058000000     2.073000000    -1.135000000
H    -3.609000000     2.627000000    -0.496000000
H    -3.606000000     1.231000000    -1.081000000
O    -9.017000000     4.767000000     0.130000000
H    -8.077000000     4.910000000     0.242000000
H    -9.403000000     5.058000000     0.956000000
O    -4.431000000     2.894000000     4.410000000
H    -4.397000000     2.545000000     3.520000000
H    -5.144000000     2.412000000     4.829000000
O    -9.914000000    -1.852000000     3.286000000
H    -9.385000000    -1.873000000     4.084000000
H    -9.383000000    -1.359000000     2.661000000
O    -9.202000000     0.303000000    -0.233000000
H    -8.444000000     0.308000000    -0.817000000
H    -9.824000000     0.904000000    -0.643000000
O    -8.414000000    -0.041000000     2.179000000
H    -8.584000000    -0.053000000     1.237000000
H    -7.825000000     0.703000000     2.307000000
O    -3.015000000     4.105000000     0.894000000
H    -3.305000000     3.352000000     1.409000000
H    -3.377000000     4.863000000     1.353000000
O    -8.506000000     3.717000000     3.916000000
H    -8.001000000     3.304000000     3.216000000
H    -8.397000000     3.132000000     4.667000000
O    -5.966000000    -0.595000000     4.517000000
H    -5.779000000    -0.451000000     3.589000000
H    -5.359000000    -1.287000000     4.779000000
O    -8.280000000    -1.773000000     5.430000000
H    -7.523000000    -1.391000000     4.986000000
H    -8.003000000    -1.860000000     6.343000000
O    -7.850000000    -2.596000000    -1.000000000
H    -7.366000000    -1.772000000    -0.956000000
H    -7.729000000    -2.991000000    -0.137000000
O    -5.944000000    -0.714000000    -0.392000000
H    -5.448000000    -0.427000000     0.375000000
H    -6.116000000     0.091000000    -0.881000000
O    -6.632000000     1.371000000    -1.914000000
H    -7.165000000     1.914000000    -2.494000000
H    -5.896000000     1.932000000    -1.670000000
O    -3.385000000     4.008000000     6.723000000
H    -3.723000000     3.654000000     5.900000000
H    -2.857000000     3.299000000     7.090000000
O    -6.843000000     1.869000000     5.222000000
H    -6.667000000     0.998000000     4.866000000
H    -7.107000000     1.708000000     6.128000000
O    -5.388000000     4.290000000    -2.224000000
H    -5.146000000     5.046000000    -1.690000000
H    -4.925000000     3.555000000    -1.822000000
O    -4.549000000     5.636000000     3.186000000
H    -4.014000000     6.283000000     3.645000000
H    -4.516000000     4.859000000     3.744000000
O    -6.849000000     2.182000000     1.596000000
H    -5.990000000     1.785000000     1.740000000
H    -6.662000000     2.994000000     1.125000000
O    -6.354000000     5.359000000     0.982000000
H    -5.815000000     5.595000000     1.737000000
H    -5.977000000     5.853000000     0.254000000
