215
-1479.20195
C    -2.721000000    -3.147000000    -2.595000000
H    -2.417000000    -3.857000000    -1.830000000
C    -1.801000000    -2.399000000    -3.428000000
C    -2.360000000    -1.429000000    -4.333000000
H    -1.740000000    -0.663000000    -4.791000000
C    -0.317000000    -2.479000000    -3.201000000
O     0.027000000    -3.796000000    -2.836000000
H    -0.002000000    -1.829000000    -2.371000000
O     0.346000000    -2.190000000    -4.420000000
C     1.415000000    -1.421000000    -4.148000000
C     1.255000000    -0.056000000    -4.296000000
H     0.356000000     0.403000000    -4.698000000
C     2.293000000     0.806000000    -3.840000000
O     2.045000000     2.116000000    -3.941000000
C     3.451000000     0.268000000    -3.319000000
C     4.542000000     1.205000000    -2.873000000
H     5.521000000     0.729000000    -2.793000000
C     4.205000000     1.705000000    -1.449000000
C     4.754000000     1.014000000    -0.357000000
H     5.456000000     0.210000000    -0.561000000
H     4.729000000     2.009000000    -3.587000000
C     3.653000000    -1.128000000    -3.290000000
H     4.517000000    -1.566000000    -2.795000000
C     2.639000000    -2.012000000    -3.698000000
C     2.817000000    -3.510000000    -3.360000000
H     3.883000000    -3.733000000    -3.291000000
H     2.318000000    -4.121000000    -4.115000000
C     2.293000000    -3.719000000    -1.941000000
C     3.153000000    -3.781000000    -0.810000000
H     4.228000000    -3.636000000    -0.890000000
C     0.917000000    -3.983000000    -1.820000000
C     0.404000000    -4.359000000    -0.604000000
H    -0.648000000    -4.573000000    -0.440000000
C     1.176000000    -4.379000000     0.536000000
O     0.553000000    -4.586000000     1.777000000
C     0.260000000    -3.383000000     2.516000000
C    -1.145000000    -3.539000000     3.066000000
C    -1.468000000    -2.765000000     4.160000000
H    -0.741000000    -2.099000000     4.618000000
C    -2.191000000    -4.230000000     2.424000000
H    -1.971000000    -4.831000000     1.546000000
O     1.243000000    -3.180000000     3.577000000
H     0.210000000    -2.554000000     1.795000000
C     2.504000000    -3.997000000     0.444000000
C     3.346000000    -3.961000000     1.695000000
H     4.316000000    -4.174000000     1.243000000
H     3.091000000    -4.736000000     2.421000000
C     3.309000000    -2.612000000     2.313000000
C     4.210000000    -1.625000000     2.032000000
H     4.903000000    -1.867000000     1.229000000
C     2.309000000    -2.334000000     3.267000000
C     2.258000000    -1.122000000     3.853000000
H     1.550000000    -0.827000000     4.624000000
C     3.156000000    -0.070000000     3.443000000
O     2.956000000     1.185000000     3.925000000
C     2.250000000     2.046000000     2.970000000
C     1.209000000     2.777000000     3.711000000
C     0.354000000     2.145000000     4.665000000
H     0.492000000     1.098000000     4.923000000
C     0.874000000     4.028000000     3.169000000
H     1.532000000     4.499000000     2.443000000
O     3.232000000     2.911000000     2.345000000
H     1.698000000     1.524000000     2.175000000
C     4.272000000    -0.384000000     2.607000000
C     5.185000000     0.716000000     2.106000000
H     6.092000000     0.183000000     1.815000000
H     5.555000000     1.336000000     2.926000000
C     4.546000000     1.439000000     0.920000000
C     3.744000000     2.585000000     1.131000000
C     3.148000000     3.238000000     0.086000000
H     2.547000000     4.099000000     0.367000000
C     3.422000000     2.849000000    -1.244000000
O     2.807000000     3.507000000    -2.234000000
C     1.634000000     2.831000000    -2.777000000
H     1.317000000     2.090000000    -2.027000000
C     0.481000000     3.767000000    -3.030000000
C    -0.451000000     3.555000000    -4.096000000
H    -0.184000000     2.793000000    -4.823000000
C     0.287000000     4.870000000    -2.190000000
H     1.054000000     5.061000000    -1.444000000
C    -0.882000000     5.626000000    -2.350000000
O    -1.203000000     6.566000000    -1.382000000
C    -1.852000000     5.321000000    -3.306000000
H    -2.745000000     5.933000000    -3.400000000
C    -1.645000000     4.262000000    -4.151000000
O    -2.692000000     3.954000000    -4.973000000
C    -2.819000000     2.783000000    -5.683000000
C    -3.709000000     1.805000000    -5.273000000
H    -4.391000000     1.902000000    -4.433000000
C    -2.096000000     2.654000000    -6.882000000
H    -1.561000000     3.528000000    -7.243000000
C    -2.111000000     1.417000000    -7.592000000
H    -1.391000000     1.171000000    -8.368000000
C    -2.891000000     0.434000000    -7.038000000
H    -2.811000000    -0.511000000    -7.570000000
C    -3.678000000     0.595000000    -5.900000000
O    -4.354000000    -0.562000000    -5.438000000
C    -3.756000000    -1.380000000    -4.586000000
C    -4.573000000    -2.157000000    -3.812000000
H    -5.638000000    -2.093000000    -4.018000000
C    -4.107000000    -3.037000000    -2.900000000
O    -5.096000000    -3.723000000    -2.196000000
C    -4.820000000    -4.712000000    -1.197000000
C    -4.741000000    -4.296000000     0.167000000
H    -4.807000000    -3.245000000     0.437000000
C    -4.873000000    -6.053000000    -1.572000000
H    -5.010000000    -6.319000000    -2.617000000
C    -4.646000000    -7.098000000    -0.597000000
H    -4.529000000    -8.121000000    -0.946000000
C    -4.511000000    -6.697000000     0.729000000
H    -4.417000000    -7.453000000     1.505000000
C    -4.651000000    -5.338000000     1.093000000
O    -4.533000000    -4.986000000     2.393000000
C    -3.488000000    -4.217000000     2.948000000
C    -3.801000000    -3.504000000     4.078000000
H    -4.779000000    -3.565000000     4.549000000
C    -2.801000000    -2.759000000     4.669000000
O    -3.078000000    -2.172000000     5.889000000
C    -2.234000000    -1.243000000     6.494000000
C    -2.331000000     0.098000000     6.084000000
H    -3.006000000     0.289000000     5.254000000
C    -1.264000000    -1.531000000     7.410000000
H    -1.003000000    -2.549000000     7.684000000
C    -0.495000000    -0.556000000     8.048000000
H     0.315000000    -0.865000000     8.703000000
C    -0.681000000     0.788000000     7.699000000
H     0.024000000     1.529000000     8.067000000
C    -1.639000000     1.078000000     6.655000000
O    -1.728000000     2.354000000     6.051000000
C    -0.781000000     2.830000000     5.125000000
C    -1.049000000     4.092000000     4.570000000
H    -1.954000000     4.619000000     4.860000000
C    -0.188000000     4.691000000     3.664000000
O    -0.552000000     5.922000000     3.241000000
C    -0.104000000     6.502000000     2.073000000
C     0.898000000     7.410000000     2.063000000
H     1.396000000     7.488000000     3.026000000
C     1.239000000     8.149000000     0.897000000
H     1.997000000     8.922000000     0.997000000
C     0.563000000     7.907000000    -0.260000000
H     0.729000000     8.581000000    -1.096000000
C    -0.446000000     6.879000000    -0.326000000
C    -0.799000000     6.205000000     0.854000000
H    -1.629000000     5.506000000     0.782000000
C    -2.659000000    -0.419000000     1.089000000
H    -3.334000000    -1.265000000     1.187000000
C    -1.502000000    -0.443000000     0.317000000
H    -1.258000000    -1.373000000    -0.191000000
C    -0.596000000     0.665000000     0.246000000
H     0.220000000     0.564000000    -0.361000000
C    -0.873000000     1.800000000     1.064000000
H    -0.138000000     2.591000000     0.939000000
C    -2.032000000     1.802000000     1.889000000
H    -2.366000000     2.664000000     2.461000000
C    -2.870000000     0.689000000     1.910000000
C    -4.064000000     0.644000000     2.854000000
O    -4.455000000     1.673000000     3.428000000
O    -4.707000000    -0.417000000     2.972000000
O    -3.545000000     3.065000000    -0.571000000
H    -3.891000000     3.429000000     0.244000000
H    -2.632000000     2.859000000    -0.373000000
O    -5.275000000     2.698000000     6.207000000
H    -5.101000000     2.605000000     5.270000000
H    -5.948000000     2.043000000     6.391000000
O    -8.415000000     0.481000000     1.854000000
H    -8.186000000    -0.412000000     2.112000000
H    -7.832000000     1.037000000     2.371000000
O    -4.642000000     3.901000000     1.782000000
H    -4.419000000     3.140000000     2.320000000
H    -5.567000000     4.060000000     1.965000000
O    -8.901000000     1.123000000     5.363000000
H    -8.166000000     1.598000000     4.977000000
H    -8.877000000     0.262000000     4.945000000
O    -7.406000000     3.304000000    -0.766000000
H    -7.157000000     4.136000000    -0.363000000
H    -8.349000000     3.379000000    -0.910000000
O    -5.527000000    -0.423000000     5.482000000
H    -4.928000000    -0.259000000     4.754000000
H    -6.203000000    -0.991000000     5.114000000
O    -9.048000000    -1.346000000     4.170000000
H    -8.375000000    -1.939000000     4.505000000
H    -9.493000000    -1.849000000     3.488000000
O    -8.116000000    -2.349000000    -0.519000000
H    -7.445000000    -1.857000000    -0.045000000
H    -8.545000000    -2.877000000     0.155000000
O    -6.226000000    -1.346000000     1.082000000
H    -5.603000000    -1.463000000     1.798000000
H    -6.064000000    -0.457000000     0.766000000
O    -5.479000000     1.213000000    -0.074000000
H    -6.070000000     1.851000000    -0.472000000
H    -4.602000000     1.533000000    -0.287000000
O    -3.430000000     3.983000000     7.778000000
H    -3.737000000     3.407000000     7.078000000
H    -2.555000000     3.658000000     7.990000000
O    -5.977000000    -0.137000000     8.435000000
H    -5.705000000    -0.333000000     7.538000000
H    -5.292000000    -0.521000000     8.982000000
O    -5.446000000     3.423000000    -2.644000000
H    -5.973000000     3.335000000    -1.850000000
H    -4.543000000     3.313000000    -2.345000000
O    -5.445000000     5.209000000     5.365000000
H    -4.632000000     5.710000000     5.425000000
H    -5.302000000     4.450000000     5.930000000
O    -7.370000000    -3.147000000     5.611000000
H    -7.201000000    -3.830000000     4.962000000
H    -7.055000000    -3.517000000     6.436000000
O    -4.431000000     7.033000000     1.139000000
H    -4.045000000     6.177000000     1.327000000
H    -3.859000000     7.657000000     1.586000000
O    -7.215000000     2.294000000     3.486000000
H    -6.312000000     1.988000000     3.406000000
H    -7.164000000     3.236000000     3.321000000
O    -6.809000000     4.932000000     3.094000000
H    -6.269000000     4.961000000     3.884000000
H    -6.967000000     5.851000000     2.878000000
