215
-1430.70287
C    -3.637000000    -2.517000000    -2.447000000
H    -3.304000000    -3.039000000    -1.553000000
C    -2.623000000    -2.140000000    -3.332000000
C    -2.906000000    -1.132000000    -4.300000000
H    -2.121000000    -0.775000000    -4.961000000
C    -1.161000000    -2.582000000    -3.041000000
O    -1.048000000    -3.977000000    -2.574000000
H    -0.810000000    -1.841000000    -2.308000000
O    -0.466000000    -2.498000000    -4.275000000
C     0.717000000    -1.831000000    -4.196000000
C     0.798000000    -0.499000000    -4.403000000
H    -0.022000000     0.060000000    -4.846000000
C     1.994000000     0.206000000    -4.247000000
O     1.826000000     1.518000000    -4.246000000
C     3.068000000    -0.434000000    -3.649000000
C     4.302000000     0.340000000    -3.338000000
H     5.180000000    -0.287000000    -3.503000000
C     4.325000000     0.936000000    -1.981000000
C     4.844000000     0.216000000    -0.855000000
H     5.326000000    -0.722000000    -1.120000000
H     4.441000000     1.164000000    -4.041000000
C     2.989000000    -1.806000000    -3.368000000
H     3.777000000    -2.289000000    -2.796000000
C     1.837000000    -2.483000000    -3.681000000
C     1.796000000    -4.005000000    -3.428000000
H     2.836000000    -4.334000000    -3.492000000
H     1.148000000    -4.547000000    -4.119000000
C     1.273000000    -4.212000000    -2.038000000
C     2.152000000    -4.416000000    -0.978000000
H     3.223000000    -4.496000000    -1.145000000
C    -0.080000000    -4.238000000    -1.695000000
C    -0.581000000    -4.597000000    -0.392000000
H    -1.648000000    -4.572000000    -0.186000000
C     0.282000000    -4.609000000     0.636000000
O    -0.231000000    -4.589000000     1.959000000
C    -0.182000000    -3.302000000     2.623000000
C    -1.485000000    -3.042000000     3.399000000
C    -1.581000000    -2.080000000     4.410000000
H    -0.707000000    -1.486000000     4.664000000
C    -2.652000000    -3.531000000     2.854000000
H    -2.657000000    -4.153000000     1.962000000
O     0.985000000    -3.359000000     3.451000000
H     0.065000000    -2.488000000     1.925000000
C     1.643000000    -4.556000000     0.332000000
C     2.653000000    -4.546000000     1.423000000
H     3.602000000    -4.947000000     1.062000000
H     2.290000000    -5.240000000     2.184000000
C     2.993000000    -3.138000000     1.968000000
C     3.964000000    -2.331000000     1.410000000
H     4.507000000    -2.670000000     0.532000000
C     2.206000000    -2.688000000     3.065000000
C     2.461000000    -1.464000000     3.641000000
H     1.821000000    -1.178000000     4.472000000
C     3.493000000    -0.705000000     3.114000000
O     3.587000000     0.559000000     3.579000000
C     2.966000000     1.596000000     2.809000000
C     2.133000000     2.485000000     3.657000000
C     1.775000000     2.135000000     4.966000000
H     2.192000000     1.249000000     5.437000000
C     1.472000000     3.560000000     3.064000000
H     1.723000000     3.772000000     2.028000000
O     3.893000000     2.400000000     2.003000000
H     2.286000000     1.010000000     2.173000000
C     4.226000000    -1.143000000     2.057000000
C     5.355000000    -0.128000000     1.557000000
H     6.171000000    -0.762000000     1.204000000
H     5.832000000     0.522000000     2.294000000
C     4.678000000     0.669000000     0.507000000
C     4.047000000     1.904000000     0.725000000
C     3.590000000     2.596000000    -0.328000000
H     3.166000000     3.566000000    -0.080000000
C     3.708000000     2.146000000    -1.649000000
O     3.022000000     2.786000000    -2.638000000
C     1.727000000     2.313000000    -3.046000000
H     1.161000000     1.695000000    -2.334000000
C     0.744000000     3.463000000    -3.190000000
C    -0.158000000     3.445000000    -4.170000000
H    -0.280000000     2.550000000    -4.773000000
C     0.720000000     4.558000000    -2.261000000
H     1.461000000     4.437000000    -1.475000000
C    -0.224000000     5.611000000    -2.368000000
O    -0.351000000     6.614000000    -1.437000000
C    -1.102000000     5.539000000    -3.423000000
H    -1.848000000     6.325000000    -3.518000000
C    -1.095000000     4.440000000    -4.283000000
O    -2.181000000     4.339000000    -5.161000000
C    -2.439000000     3.203000000    -5.938000000
C    -3.351000000     2.304000000    -5.411000000
H    -3.714000000     2.526000000    -4.411000000
C    -1.883000000     2.900000000    -7.199000000
H    -1.199000000     3.647000000    -7.593000000
C    -2.329000000     1.742000000    -7.986000000
H    -2.052000000     1.679000000    -9.035000000
C    -3.168000000     0.860000000    -7.378000000
H    -3.497000000    -0.063000000    -7.849000000
C    -3.631000000     1.122000000    -6.061000000
O    -4.578000000     0.283000000    -5.405000000
C    -4.209000000    -0.597000000    -4.413000000
C    -5.166000000    -0.970000000    -3.489000000
H    -6.119000000    -0.460000000    -3.373000000
C    -4.845000000    -1.893000000    -2.469000000
O    -5.811000000    -2.302000000    -1.528000000
C    -5.586000000    -3.354000000    -0.630000000
C    -5.487000000    -3.096000000     0.690000000
H    -5.740000000    -2.093000000     1.024000000
C    -5.258000000    -4.651000000    -1.162000000
H    -5.278000000    -4.836000000    -2.233000000
C    -4.950000000    -5.658000000    -0.253000000
H    -4.802000000    -6.699000000    -0.529000000
C    -4.822000000    -5.311000000     1.060000000
H    -4.480000000    -6.049000000     1.781000000
C    -5.052000000    -4.099000000     1.569000000
O    -5.005000000    -3.811000000     2.875000000
C    -3.885000000    -3.204000000     3.380000000
C    -3.989000000    -2.360000000     4.414000000
H    -4.920000000    -2.112000000     4.918000000
C    -2.829000000    -1.769000000     4.923000000
O    -2.924000000    -0.764000000     5.936000000
C    -1.800000000    -0.415000000     6.592000000
C    -1.157000000     0.784000000     6.323000000
H    -1.598000000     1.330000000     5.493000000
C    -1.326000000    -1.206000000     7.640000000
H    -1.648000000    -2.244000000     7.682000000
C    -0.349000000    -0.701000000     8.489000000
H    -0.084000000    -1.321000000     9.341000000
C     0.271000000     0.525000000     8.226000000
H     1.044000000     0.918000000     8.882000000
C    -0.091000000     1.261000000     7.108000000
O     0.355000000     2.502000000     6.881000000
C     0.812000000     2.901000000     5.641000000
C     0.346000000     4.048000000     5.031000000
H    -0.234000000     4.715000000     5.663000000
C     0.595000000     4.348000000     3.697000000
O    -0.061000000     5.397000000     3.012000000
C     0.478000000     6.134000000     2.031000000
C     1.749000000     6.741000000     2.140000000
H     2.265000000     6.694000000     3.096000000
C     2.298000000     7.382000000     1.012000000
H     3.170000000     8.019000000     1.133000000
C     1.584000000     7.330000000    -0.209000000
H     2.062000000     7.717000000    -1.106000000
C     0.350000000     6.706000000    -0.268000000
C    -0.210000000     6.233000000     0.852000000
H    -1.162000000     5.707000000     0.844000000
C    -2.363000000    -0.381000000     1.404000000
H    -3.261000000    -0.916000000     1.701000000
C    -1.615000000    -0.927000000     0.422000000
H    -1.878000000    -1.875000000    -0.040000000
C    -0.385000000    -0.358000000     0.105000000
H     0.309000000    -0.938000000    -0.499000000
C    -0.031000000     0.866000000     0.676000000
H     0.898000000     1.302000000     0.320000000
C    -0.852000000     1.444000000     1.650000000
H    -0.579000000     2.378000000     2.136000000
C    -2.128000000     0.803000000     1.999000000
C    -3.177000000     1.457000000     2.877000000
O    -2.961000000     2.515000000     3.369000000
O    -4.227000000     0.923000000     3.198000000
O    -2.787000000     1.361000000    -1.312000000
H    -2.306000000     0.944000000    -0.597000000
H    -2.133000000     1.900000000    -1.757000000
O    -7.663000000     3.580000000     5.687000000
H    -8.513000000     3.239000000     5.409000000
H    -7.091000000     3.444000000     4.931000000
O    -3.272000000     3.405000000     5.953000000
H    -3.081000000     3.043000000     5.088000000
H    -3.988000000     2.865000000     6.287000000
O    -8.328000000     1.878000000     2.909000000
H    -7.634000000     2.491000000     3.150000000
H    -7.866000000     1.122000000     2.547000000
O    -3.262000000     4.952000000     2.495000000
H    -3.240000000     4.085000000     2.900000000
H    -2.625000000     5.465000000     2.993000000
O    -7.009000000     3.824000000     0.143000000
H    -7.721000000     4.302000000    -0.284000000
H    -6.790000000     4.356000000     0.908000000
O    -5.685000000     0.177000000     5.321000000
H    -5.121000000     0.258000000     4.552000000
H    -6.548000000    -0.033000000     4.963000000
O    -5.909000000    -1.053000000     7.664000000
H    -5.585000000    -0.716000000     6.829000000
H    -5.800000000    -2.002000000     7.598000000
O    -8.425000000    -2.089000000     1.313000000
H    -7.791000000    -1.506000000     1.731000000
H    -8.489000000    -2.839000000     1.905000000
O    -6.293000000     0.080000000     2.065000000
H    -5.491000000     0.270000000     2.551000000
H    -6.099000000     0.349000000     1.167000000
O    -5.356000000     1.297000000    -0.198000000
H    -5.509000000     2.241000000    -0.252000000
H    -4.456000000     1.183000000    -0.504000000
O    -2.168000000     3.535000000     8.553000000
H    -2.188000000     3.463000000     7.599000000
H    -1.454000000     4.147000000     8.732000000
O    -5.352000000     1.930000000     7.463000000
H    -5.757000000     1.335000000     6.832000000
H    -4.776000000     1.370000000     7.984000000
O    -4.755000000     4.299000000    -2.053000000
H    -5.291000000     5.076000000    -1.889000000
H    -3.920000000     4.491000000    -1.626000000
O    -4.458000000     6.171000000     5.843000000
H    -3.706000000     6.294000000     5.264000000
H    -4.343000000     5.291000000     6.202000000
O    -4.637000000     6.906000000     1.497000000
H    -4.136000000     6.101000000     1.625000000
H    -4.258000000     7.526000000     2.120000000
O    -5.833000000     3.138000000     3.714000000
H    -5.195000000     2.427000000     3.659000000
H    -5.403000000     3.880000000     3.288000000
O    -7.198000000     5.974000000     2.196000000
H    -7.335000000     6.446000000     3.017000000
H    -6.400000000     6.354000000     1.830000000
O    -8.163000000     0.991000000    -0.368000000
H    -8.369000000     1.889000000    -0.107000000
H    -7.207000000     0.968000000    -0.411000000
