215
-1463.93584
C    -3.247000000    -3.020000000    -2.899000000
H    -2.904000000    -3.763000000    -2.185000000
C    -2.373000000    -2.222000000    -3.624000000
C    -2.876000000    -1.214000000    -4.449000000
H    -2.226000000    -0.525000000    -4.982000000
C    -0.824000000    -2.315000000    -3.355000000
O    -0.553000000    -3.733000000    -3.008000000
H    -0.641000000    -1.635000000    -2.510000000
O    -0.012000000    -1.985000000    -4.539000000
C     1.208000000    -1.368000000    -4.433000000
C     1.216000000     0.040000000    -4.647000000
H     0.369000000     0.448000000    -5.193000000
C     2.305000000     0.761000000    -4.129000000
O     2.202000000     2.181000000    -4.078000000
C     3.486000000     0.130000000    -3.655000000
C     4.643000000     0.924000000    -3.085000000
H     5.546000000     0.310000000    -3.044000000
C     4.367000000     1.292000000    -1.621000000
C     4.830000000     0.444000000    -0.585000000
H     5.288000000    -0.514000000    -0.815000000
H     4.815000000     1.805000000    -3.708000000
C     3.519000000    -1.318000000    -3.515000000
H     4.348000000    -1.853000000    -3.060000000
C     2.335000000    -1.962000000    -3.831000000
C     2.365000000    -3.441000000    -3.479000000
H     3.322000000    -3.965000000    -3.502000000
H     1.820000000    -3.932000000    -4.288000000
C     1.740000000    -3.737000000    -2.130000000
C     2.543000000    -3.931000000    -1.036000000
H     3.606000000    -3.746000000    -1.171000000
C     0.334000000    -3.907000000    -2.004000000
C    -0.231000000    -4.057000000    -0.772000000
H    -1.288000000    -4.244000000    -0.601000000
C     0.581000000    -4.308000000     0.305000000
O     0.000000000    -4.603000000     1.493000000
C    -0.152000000    -3.447000000     2.411000000
C    -1.528000000    -3.361000000     3.061000000
C    -1.663000000    -2.838000000     4.355000000
H    -0.721000000    -2.644000000     4.861000000
C    -2.687000000    -3.819000000     2.423000000
H    -2.599000000    -4.495000000     1.576000000
O     0.965000000    -3.602000000     3.329000000
H    -0.005000000    -2.482000000     1.905000000
C     1.997000000    -4.278000000     0.183000000
C     2.882000000    -4.546000000     1.350000000
H     3.861000000    -4.923000000     1.045000000
H     2.488000000    -5.346000000     1.980000000
C     3.062000000    -3.259000000     2.146000000
C     4.046000000    -2.332000000     1.698000000
H     4.781000000    -2.466000000     0.908000000
C     2.056000000    -2.841000000     2.993000000
C     2.188000000    -1.621000000     3.653000000
H     1.366000000    -1.332000000     4.302000000
C     3.136000000    -0.716000000     3.272000000
O     3.043000000     0.607000000     3.797000000
C     2.564000000     1.617000000     2.908000000
C     1.579000000     2.535000000     3.629000000
C     0.695000000     2.017000000     4.618000000
H     0.762000000     0.976000000     4.923000000
C     1.479000000     3.883000000     3.299000000
H     2.164000000     4.341000000     2.591000000
O     3.606000000     2.335000000     2.399000000
H     1.954000000     1.032000000     2.204000000
C     4.063000000    -1.066000000     2.264000000
C     5.135000000    -0.070000000     1.882000000
H     6.044000000    -0.662000000     1.759000000
H     5.272000000     0.531000000     2.783000000
C     4.712000000     0.864000000     0.764000000
C     3.998000000     2.005000000     1.126000000
C     3.556000000     2.864000000     0.134000000
H     2.980000000     3.758000000     0.359000000
C     3.687000000     2.508000000    -1.253000000
O     3.133000000     3.312000000    -2.246000000
C     1.854000000     2.826000000    -2.826000000
H     1.365000000     2.078000000    -2.185000000
C     0.812000000     4.006000000    -2.981000000
C    -0.248000000     3.732000000    -3.804000000
H    -0.197000000     2.952000000    -4.559000000
C     0.801000000     5.098000000    -2.107000000
H     1.513000000     5.156000000    -1.287000000
C    -0.339000000     5.856000000    -1.966000000
O    -0.470000000     6.823000000    -0.959000000
C    -1.378000000     5.582000000    -2.819000000
H    -2.247000000     6.226000000    -2.714000000
C    -1.362000000     4.531000000    -3.720000000
O    -2.503000000     4.308000000    -4.444000000
C    -2.773000000     3.237000000    -5.281000000
C    -3.611000000     2.191000000    -4.892000000
H    -4.053000000     2.145000000    -3.900000000
C    -2.213000000     3.094000000    -6.549000000
H    -1.587000000     3.875000000    -6.973000000
C    -2.506000000     2.024000000    -7.394000000
H    -2.090000000     2.060000000    -8.398000000
C    -3.394000000     1.001000000    -6.976000000
H    -3.568000000     0.104000000    -7.565000000
C    -3.980000000     1.136000000    -5.741000000
O    -4.781000000     0.093000000    -5.285000000
C    -4.221000000    -1.011000000    -4.656000000
C    -5.115000000    -1.824000000    -3.993000000
H    -6.174000000    -1.596000000    -4.082000000
C    -4.631000000    -2.771000000    -3.062000000
O    -5.590000000    -3.398000000    -2.354000000
C    -5.318000000    -4.202000000    -1.315000000
C    -5.464000000    -3.741000000    -0.010000000
H    -5.651000000    -2.714000000     0.294000000
C    -4.865000000    -5.490000000    -1.548000000
H    -4.727000000    -5.765000000    -2.591000000
C    -4.590000000    -6.343000000    -0.465000000
H    -4.206000000    -7.340000000    -0.666000000
C    -4.608000000    -5.811000000     0.860000000
H    -4.192000000    -6.442000000     1.643000000
C    -5.078000000    -4.507000000     1.069000000
O    -5.127000000    -3.951000000     2.322000000
C    -3.988000000    -3.584000000     2.977000000
C    -4.051000000    -3.080000000     4.241000000
H    -4.998000000    -3.056000000     4.774000000
C    -2.929000000    -2.698000000     4.923000000
O    -3.086000000    -2.134000000     6.166000000
C    -2.204000000    -1.197000000     6.629000000
C    -2.103000000     0.171000000     6.171000000
H    -2.742000000     0.442000000     5.336000000
C    -1.281000000    -1.596000000     7.585000000
H    -1.350000000    -2.653000000     7.828000000
C    -0.319000000    -0.736000000     8.061000000
H     0.387000000    -1.087000000     8.809000000
C    -0.317000000     0.600000000     7.694000000
H     0.443000000     1.288000000     8.056000000
C    -1.181000000     1.059000000     6.709000000
O    -1.142000000     2.363000000     6.242000000
C    -0.285000000     2.846000000     5.245000000
C    -0.234000000     4.217000000     4.939000000
H    -1.042000000     4.832000000     5.326000000
C     0.586000000     4.675000000     3.952000000
O     0.475000000     5.954000000     3.675000000
C     0.764000000     6.420000000     2.429000000
C     2.088000000     6.963000000     2.241000000
H     2.767000000     6.985000000     3.090000000
C     2.549000000     7.407000000     0.975000000
H     3.552000000     7.794000000     0.814000000
C     1.635000000     7.430000000    -0.055000000
H     1.903000000     7.741000000    -1.062000000
C     0.339000000     6.918000000     0.137000000
C    -0.121000000     6.414000000     1.334000000
H    -1.101000000     5.951000000     1.424000000
C    -2.135000000    -0.184000000     1.247000000
H    -2.996000000    -0.719000000     1.641000000
C    -1.219000000    -0.740000000     0.399000000
H    -1.440000000    -1.746000000     0.051000000
C    -0.081000000    -0.073000000     0.057000000
H     0.598000000    -0.595000000    -0.559000000
C     0.161000000     1.222000000     0.518000000
H     1.045000000     1.788000000     0.234000000
C    -0.806000000     1.856000000     1.264000000
H    -0.701000000     2.926000000     1.419000000
C    -1.943000000     1.168000000     1.683000000
C    -3.031000000     1.989000000     2.364000000
O    -2.762000000     3.120000000     2.752000000
O    -4.081000000     1.409000000     2.609000000
O    -3.298000000     3.051000000    -1.308000000
H    -2.563000000     2.760000000    -0.769000000
H    -3.892000000     2.301000000    -1.328000000
O    -4.291000000     3.727000000     4.971000000
H    -3.743000000     3.676000000     4.189000000
H    -4.925000000     3.017000000     4.866000000
O    -1.885000000     7.032000000     4.542000000
H    -1.853000000     7.972000000     4.721000000
H    -1.086000000     6.856000000     4.045000000
O    -3.256000000     5.761000000     2.557000000
H    -3.033000000     4.856000000     2.777000000
H    -2.818000000     6.286000000     3.227000000
O    -8.504000000     3.559000000     3.140000000
H    -7.636000000     3.244000000     3.391000000
H    -8.868000000     2.857000000     2.601000000
O    -6.074000000     1.686000000     4.195000000
H    -5.374000000     1.591000000     3.549000000
H    -5.883000000     1.020000000     4.856000000
O    -8.658000000     0.682000000     5.027000000
H    -8.696000000    -0.216000000     4.698000000
H    -7.824000000     1.021000000     4.701000000
O    -4.476000000     6.680000000     0.340000000
H    -3.973000000     6.183000000     0.985000000
H    -4.680000000     7.505000000     0.780000000
O    -5.218000000    -0.019000000     6.689000000
H    -4.515000000    -0.666000000     6.744000000
H    -6.001000000    -0.493000000     6.968000000
O    -7.671000000    -0.974000000     1.690000000
H    -6.889000000    -0.428000000     1.607000000
H    -7.507000000    -1.512000000     2.464000000
O    -5.683000000     0.462000000     0.547000000
H    -5.155000000     0.889000000     1.222000000
H    -5.094000000     0.382000000    -0.203000000
O    -3.985000000     0.287000000    -1.747000000
H    -3.433000000    -0.454000000    -1.995000000
H    -4.859000000     0.048000000    -2.054000000
O    -3.313000000     5.734000000     6.705000000
H    -3.598000000     4.931000000     6.270000000
H    -2.964000000     6.278000000     6.000000000
O    -4.280000000     2.329000000     7.693000000
H    -4.559000000     1.414000000     7.702000000
H    -3.759000000     2.414000000     6.894000000
O    -1.012000000     3.255000000     8.869000000
H    -0.765000000     4.172000000     8.990000000
H    -1.050000000     3.141000000     7.919000000
O    -4.753000000     5.197000000    -1.852000000
H    -4.119000000     4.480000000    -1.843000000
H    -4.490000000     5.758000000    -1.123000000
O    -6.097000000     5.809000000     5.458000000
H    -6.009000000     6.023000000     6.387000000
H    -5.397000000     5.177000000     5.291000000
O    -5.595000000     3.592000000     1.267000000
H    -5.028000000     3.549000000     2.037000000
H    -5.022000000     3.367000000     0.534000000
O    -6.981000000     5.659000000     0.480000000
H    -6.104000000     6.044000000     0.503000000
H    -6.892000000     4.831000000     0.952000000
