215
-1455.35810
C    -2.823000000    -2.848000000    -3.476000000
H    -2.336000000    -3.812000000    -3.353000000
C    -2.049000000    -1.702000000    -3.709000000
C    -2.772000000    -0.494000000    -3.718000000
H    -2.268000000     0.442000000    -3.943000000
C    -0.527000000    -1.842000000    -3.815000000
O    -0.051000000    -3.201000000    -3.970000000
H    -0.076000000    -1.470000000    -2.883000000
O    -0.079000000    -1.065000000    -4.921000000
C     1.048000000    -0.336000000    -4.551000000
C     0.765000000     1.000000000    -4.416000000
H    -0.154000000     1.386000000    -4.849000000
C     1.746000000     1.857000000    -3.876000000
O     1.388000000     3.169000000    -3.604000000
C     3.054000000     1.366000000    -3.629000000
C     4.080000000     2.296000000    -3.022000000
H     5.039000000     1.911000000    -3.375000000
C     3.906000000     2.246000000    -1.492000000
C     4.675000000     1.397000000    -0.690000000
H     5.341000000     0.653000000    -1.120000000
H     4.052000000     3.293000000    -3.468000000
C     3.246000000    -0.017000000    -3.620000000
H     4.167000000    -0.508000000    -3.315000000
C     2.315000000    -0.896000000    -4.229000000
C     2.645000000    -2.424000000    -4.403000000
H     3.719000000    -2.594000000    -4.501000000
H     2.282000000    -2.760000000    -5.377000000
C     2.208000000    -3.237000000    -3.227000000
C     3.091000000    -3.387000000    -2.159000000
H     4.069000000    -2.926000000    -2.279000000
C     0.904000000    -3.525000000    -3.026000000
C     0.412000000    -4.008000000    -1.828000000
H    -0.665000000    -4.043000000    -1.685000000
C     1.321000000    -4.282000000    -0.817000000
O     0.870000000    -4.772000000     0.382000000
C     0.700000000    -3.731000000     1.363000000
C    -0.703000000    -3.881000000     1.951000000
C    -0.893000000    -3.368000000     3.179000000
H    -0.081000000    -2.828000000     3.659000000
C    -1.768000000    -4.451000000     1.270000000
H    -1.536000000    -4.963000000     0.339000000
O     1.750000000    -3.635000000     2.334000000
H     0.657000000    -2.781000000     0.809000000
C     2.655000000    -3.934000000    -0.988000000
C     3.670000000    -4.027000000     0.133000000
H     4.690000000    -4.083000000    -0.250000000
H     3.642000000    -4.968000000     0.687000000
C     3.576000000    -2.837000000     1.084000000
C     4.467000000    -1.773000000     0.864000000
H     5.173000000    -1.910000000     0.048000000
C     2.643000000    -2.695000000     2.103000000
C     2.700000000    -1.648000000     3.008000000
H     1.979000000    -1.614000000     3.820000000
C     3.611000000    -0.647000000     2.857000000
O     3.573000000     0.475000000     3.725000000
C     2.757000000     1.571000000     3.225000000
C     1.879000000     2.048000000     4.357000000
C     1.391000000     1.123000000     5.334000000
H     1.731000000     0.091000000     5.306000000
C     1.285000000     3.277000000     4.303000000
H     1.611000000     3.987000000     3.547000000
O     3.626000000     2.620000000     2.635000000
H     2.167000000     1.247000000     2.354000000
C     4.405000000    -0.638000000     1.712000000
C     5.387000000     0.485000000     1.526000000
H     6.240000000    -0.004000000     1.051000000
H     5.754000000     0.838000000     2.492000000
C     4.680000000     1.540000000     0.681000000
C     3.913000000     2.544000000     1.274000000
C     3.067000000     3.346000000     0.474000000
H     2.516000000     4.187000000     0.888000000
C     3.108000000     3.233000000    -0.893000000
O     2.294000000     4.103000000    -1.648000000
C     1.035000000     3.522000000    -2.203000000
H     0.753000000     2.589000000    -1.692000000
C    -0.195000000     4.382000000    -2.043000000
C    -1.025000000     4.567000000    -3.164000000
H    -0.858000000     3.986000000    -4.067000000
C    -0.474000000     4.940000000    -0.833000000
H     0.151000000     4.660000000     0.012000000
C    -1.581000000     5.689000000    -0.578000000
O    -1.947000000     6.043000000     0.722000000
C    -2.510000000     5.785000000    -1.641000000
H    -3.487000000     6.250000000    -1.536000000
C    -2.237000000     5.307000000    -2.923000000
O    -3.183000000     5.313000000    -4.002000000
C    -3.597000000     4.143000000    -4.543000000
C    -4.021000000     3.085000000    -3.676000000
H    -4.058000000     3.231000000    -2.599000000
C    -3.760000000     3.914000000    -5.935000000
H    -3.420000000     4.669000000    -6.639000000
C    -4.078000000     2.651000000    -6.490000000
H    -4.166000000     2.503000000    -7.564000000
C    -4.492000000     1.621000000    -5.620000000
H    -4.821000000     0.648000000    -5.977000000
C    -4.456000000     1.871000000    -4.270000000
O    -4.759000000     0.824000000    -3.481000000
C    -4.150000000    -0.372000000    -3.585000000
C    -4.871000000    -1.583000000    -3.508000000
H    -5.957000000    -1.628000000    -3.533000000
C    -4.211000000    -2.788000000    -3.426000000
O    -5.026000000    -3.904000000    -3.320000000
C    -4.751000000    -4.923000000    -2.409000000
C    -4.462000000    -4.588000000    -1.097000000
H    -4.378000000    -3.525000000    -0.883000000
C    -4.728000000    -6.274000000    -2.703000000
H    -5.190000000    -6.638000000    -3.616000000
C    -4.443000000    -7.251000000    -1.803000000
H    -4.496000000    -8.317000000    -2.009000000
C    -4.164000000    -6.856000000    -0.486000000
H    -3.816000000    -7.674000000     0.139000000
C    -4.176000000    -5.529000000    -0.116000000
O    -4.078000000    -5.119000000     1.222000000
C    -3.038000000    -4.482000000     1.848000000
C    -3.250000000    -3.955000000     3.119000000
H    -4.215000000    -3.859000000     3.609000000
C    -2.137000000    -3.413000000     3.797000000
O    -2.356000000    -2.774000000     5.028000000
C    -1.324000000    -2.337000000     5.903000000
C    -1.139000000    -1.016000000     6.183000000
H    -1.813000000    -0.308000000     5.708000000
C    -0.556000000    -3.300000000     6.593000000
H    -0.655000000    -4.353000000     6.341000000
C     0.411000000    -2.921000000     7.595000000
H     0.919000000    -3.632000000     8.241000000
C     0.524000000    -1.579000000     7.901000000
H     1.289000000    -1.214000000     8.580000000
C    -0.138000000    -0.627000000     7.104000000
O     0.071000000     0.675000000     7.272000000
C     0.496000000     1.549000000     6.330000000
C    -0.064000000     2.839000000     6.248000000
H    -0.871000000     3.238000000     6.857000000
C     0.292000000     3.638000000     5.181000000
O    -0.262000000     4.905000000     5.118000000
C    -0.158000000     5.702000000     4.007000000
C     0.853000000     6.655000000     3.940000000
H     1.632000000     6.675000000     4.698000000
C     0.897000000     7.419000000     2.813000000
H     1.728000000     8.115000000     2.728000000
C    -0.053000000     7.291000000     1.755000000
H     0.034000000     7.982000000     0.921000000
C    -1.071000000     6.348000000     1.815000000
C    -1.029000000     5.522000000     2.974000000
H    -1.831000000     4.793000000     3.046000000
C    -2.258000000    -0.948000000     0.862000000
H    -3.090000000    -1.645000000     0.800000000
C    -1.245000000    -0.863000000    -0.117000000
H    -1.264000000    -1.513000000    -0.988000000
C    -0.285000000     0.127000000    -0.102000000
H     0.451000000     0.157000000    -0.896000000
C    -0.358000000     1.075000000     0.873000000
H     0.258000000     1.968000000     0.813000000
C    -1.373000000     1.035000000     1.812000000
H    -1.391000000     1.807000000     2.577000000
C    -2.353000000     0.019000000     1.827000000
C    -3.534000000     0.092000000     2.719000000
O    -3.694000000     1.066000000     3.401000000
O    -4.433000000    -0.745000000     2.678000000
O    -7.744000000    -2.457000000    -0.950000000
H    -7.000000000    -2.220000000    -0.397000000
H    -8.123000000    -3.226000000    -0.526000000
O    -7.561000000     0.374000000     6.361000000
H    -6.958000000     0.718000000     5.702000000
H    -7.484000000     0.981000000     7.097000000
O    -5.886000000     2.069000000     4.774000000
H    -5.168000000     1.672000000     4.281000000
H    -6.298000000     2.670000000     4.153000000
O    -7.954000000     3.136000000     3.355000000
H    -8.606000000     2.693000000     3.899000000
H    -7.909000000     4.024000000     3.710000000
O    -3.816000000     3.294000000     1.758000000
H    -3.872000000     2.519000000     2.316000000
H    -3.461000000     2.968000000     0.930000000
O    -4.737000000    -2.255000000     6.644000000
H    -3.903000000    -2.354000000     6.185000000
H    -4.565000000    -2.581000000     7.527000000
O    -3.289000000     1.900000000    -0.662000000
H    -2.569000000     1.312000000    -0.435000000
H    -3.872000000     1.367000000    -1.203000000
O    -6.051000000    -1.840000000     4.358000000
H    -5.423000000    -1.335000000     3.842000000
H    -5.597000000    -2.018000000     5.181000000
O    -8.730000000    -0.274000000     3.959000000
H    -8.255000000    -0.367000000     4.785000000
H    -8.081000000     0.071000000     3.347000000
O    -4.202000000    -5.302000000     6.425000000
H    -5.005000000    -5.540000000     5.962000000
H    -3.926000000    -4.480000000     6.021000000
O    -6.843000000    -3.845000000     2.751000000
H    -6.766000000    -3.178000000     3.433000000
H    -6.960000000    -4.665000000     3.231000000
O    -5.922000000    -2.079000000     0.994000000
H    -6.134000000    -2.878000000     1.475000000
H    -5.274000000    -1.634000000     1.541000000
O    -7.694000000     1.313000000    -0.200000000
H    -7.661000000     0.985000000     0.698000000
H    -7.289000000     2.179000000    -0.154000000
O    -4.143000000     4.095000000     5.102000000
H    -3.587000000     4.052000000     5.880000000
H    -4.688000000     3.310000000     5.153000000
O    -5.610000000     5.745000000    -0.436000000
H    -4.718000000     5.896000000    -0.122000000
H    -6.003000000     5.175000000     0.224000000
O    -4.943000000     5.675000000     2.455000000
H    -5.230000000     5.561000000     3.361000000
H    -4.385000000     4.917000000     2.283000000
O    -2.377000000     0.891000000     9.633000000
H    -2.220000000     0.971000000     8.693000000
H    -1.923000000     1.642000000    10.017000000
O    -6.510000000     3.433000000     0.978000000
H    -6.978000000     3.159000000     1.767000000
H    -5.589000000     3.256000000     1.173000000
O    -6.880000000     0.421000000     2.194000000
H    -6.816000000    -0.463000000     1.832000000
H    -5.985000000     0.638000000     2.454000000
