215
-1443.27683
C    -2.476000000    -2.280000000    -3.292000000
H    -1.961000000    -2.868000000    -2.537000000
C    -1.692000000    -1.503000000    -4.159000000
C    -2.195000000    -0.396000000    -4.927000000
H    -1.562000000     0.405000000    -5.298000000
C    -0.129000000    -1.693000000    -4.038000000
O     0.297000000    -3.050000000    -4.185000000
H     0.019000000    -1.340000000    -3.007000000
O     0.556000000    -0.822000000    -4.959000000
C     1.579000000    -0.010000000    -4.410000000
C     1.214000000     1.231000000    -4.096000000
H     0.209000000     1.609000000    -4.263000000
C     2.125000000     2.036000000    -3.376000000
O     1.684000000     3.332000000    -2.974000000
C     3.427000000     1.627000000    -3.087000000
C     4.349000000     2.546000000    -2.287000000
H     5.405000000     2.313000000    -2.443000000
C     4.080000000     2.562000000    -0.776000000
C     4.919000000     1.786000000     0.022000000
H     5.617000000     1.120000000    -0.478000000
H     4.244000000     3.528000000    -2.753000000
C     3.771000000     0.294000000    -3.432000000
H     4.629000000    -0.210000000    -2.996000000
C     2.810000000    -0.541000000    -4.077000000
C     3.124000000    -2.009000000    -4.436000000
H     4.199000000    -2.179000000    -4.513000000
H     2.652000000    -2.129000000    -5.414000000
C     2.548000000    -2.961000000    -3.389000000
C     3.382000000    -3.221000000    -2.242000000
H     4.434000000    -2.955000000    -2.175000000
C     1.236000000    -3.430000000    -3.220000000
C     0.768000000    -4.117000000    -2.137000000
H    -0.261000000    -4.461000000    -2.205000000
C     1.575000000    -4.268000000    -1.010000000
O     1.106000000    -4.806000000     0.134000000
C     0.671000000    -3.981000000     1.210000000
C    -0.647000000    -4.429000000     1.845000000
C    -1.013000000    -3.765000000     2.976000000
H    -0.368000000    -3.124000000     3.572000000
C    -1.588000000    -5.171000000     1.087000000
H    -1.254000000    -5.578000000     0.136000000
O     1.718000000    -4.007000000     2.234000000
H     0.617000000    -2.939000000     0.863000000
C     2.871000000    -3.796000000    -1.082000000
C     3.808000000    -3.969000000     0.130000000
H     4.807000000    -4.007000000    -0.310000000
H     3.651000000    -4.892000000     0.693000000
C     3.668000000    -2.940000000     1.222000000
C     4.470000000    -1.784000000     1.203000000
H     5.264000000    -1.705000000     0.465000000
C     2.661000000    -2.922000000     2.184000000
C     2.638000000    -2.009000000     3.255000000
H     1.868000000    -2.114000000     4.014000000
C     3.483000000    -0.955000000     3.244000000
O     3.298000000     0.072000000     4.104000000
C     2.428000000     1.162000000     3.581000000
C     1.313000000     1.640000000     4.461000000
C     0.805000000     0.766000000     5.386000000
H     1.255000000    -0.222000000     5.440000000
C     0.643000000     2.888000000     4.250000000
H     0.935000000     3.526000000     3.421000000
O     3.364000000     2.239000000     3.223000000
H     2.010000000     0.806000000     2.627000000
C     4.385000000    -0.767000000     2.211000000
C     5.274000000     0.526000000     2.128000000
H     6.232000000     0.270000000     1.670000000
H     5.588000000     0.806000000     3.135000000
C     4.660000000     1.646000000     1.352000000
C     3.712000000     2.451000000     1.957000000
C     2.925000000     3.355000000     1.206000000
H     2.072000000     3.860000000     1.653000000
C     3.109000000     3.424000000    -0.165000000
O     2.189000000     4.114000000    -0.827000000
C     1.206000000     3.492000000    -1.661000000
H     0.928000000     2.587000000    -1.100000000
C    -0.125000000     4.265000000    -1.657000000
C    -0.941000000     4.393000000    -2.766000000
H    -0.562000000     3.975000000    -3.695000000
C    -0.734000000     4.565000000    -0.387000000
H    -0.222000000     4.404000000     0.559000000
C    -1.875000000     5.286000000    -0.382000000
O    -2.349000000     5.891000000     0.753000000
C    -2.544000000     5.639000000    -1.586000000
H    -3.392000000     6.318000000    -1.569000000
C    -2.115000000     5.079000000    -2.729000000
O    -2.884000000     5.298000000    -3.859000000
C    -3.107000000     4.285000000    -4.885000000
C    -3.486000000     2.989000000    -4.547000000
H    -3.815000000     2.801000000    -3.528000000
C    -2.772000000     4.562000000    -6.167000000
H    -2.402000000     5.540000000    -6.464000000
C    -2.760000000     3.615000000    -7.173000000
H    -2.496000000     3.863000000    -8.198000000
C    -3.202000000     2.348000000    -6.862000000
H    -2.997000000     1.561000000    -7.583000000
C    -3.581000000     2.073000000    -5.557000000
O    -4.120000000     0.890000000    -5.326000000
C    -3.523000000    -0.112000000    -4.655000000
C    -4.346000000    -0.967000000    -3.940000000
H    -5.378000000    -0.638000000    -3.853000000
C    -3.852000000    -2.088000000    -3.228000000
O    -4.761000000    -2.724000000    -2.423000000
C    -4.592000000    -4.026000000    -2.086000000
C    -4.148000000    -4.384000000    -0.812000000
H    -4.036000000    -3.630000000    -0.037000000
C    -4.871000000    -5.045000000    -2.978000000
H    -5.083000000    -4.786000000    -4.013000000
C    -4.975000000    -6.409000000    -2.527000000
H    -5.284000000    -7.184000000    -3.223000000
C    -4.689000000    -6.749000000    -1.218000000
H    -4.759000000    -7.784000000    -0.894000000
C    -4.222000000    -5.731000000    -0.385000000
O    -3.852000000    -6.027000000     0.901000000
C    -2.872000000    -5.377000000     1.641000000
C    -3.248000000    -4.715000000     2.879000000
H    -4.267000000    -4.825000000     3.240000000
C    -2.295000000    -3.950000000     3.525000000
O    -2.646000000    -3.463000000     4.708000000
C    -1.749000000    -3.044000000     5.694000000
C    -1.809000000    -1.723000000     6.030000000
H    -2.394000000    -1.076000000     5.382000000
C    -0.686000000    -3.852000000     6.168000000
H    -0.645000000    -4.919000000     5.962000000
C     0.198000000    -3.319000000     7.129000000
H     1.088000000    -3.837000000     7.476000000
C     0.048000000    -1.950000000     7.485000000
H     0.816000000    -1.518000000     8.121000000
C    -0.919000000    -1.144000000     6.853000000
O    -0.838000000     0.214000000     7.110000000
C    -0.333000000     1.020000000     6.128000000
C    -0.932000000     2.253000000     6.029000000
H    -1.672000000     2.500000000     6.785000000
C    -0.452000000     3.191000000     5.092000000
O    -1.142000000     4.391000000     5.080000000
C    -1.007000000     5.341000000     4.094000000
C    -0.406000000     6.582000000     4.328000000
H     0.054000000     6.762000000     5.296000000
C    -0.583000000     7.638000000     3.452000000
H    -0.131000000     8.578000000     3.757000000
C    -1.154000000     7.434000000     2.234000000
H    -1.322000000     8.186000000     1.466000000
C    -1.692000000     6.178000000     1.886000000
C    -1.539000000     5.177000000     2.806000000
H    -1.941000000     4.204000000     2.535000000
C    -1.842000000    -1.073000000     0.699000000
H    -2.546000000    -1.900000000     0.756000000
C    -0.825000000    -1.214000000    -0.249000000
H    -0.800000000    -2.089000000    -0.893000000
C     0.234000000    -0.290000000    -0.340000000
H     1.146000000    -0.549000000    -0.911000000
C     0.300000000     0.727000000     0.544000000
H     1.242000000     1.261000000     0.646000000
C    -0.762000000     0.981000000     1.403000000
H    -0.657000000     1.809000000     2.099000000
C    -1.797000000     0.025000000     1.563000000
C    -2.834000000     0.166000000     2.682000000
O    -2.866000000     1.212000000     3.360000000
O    -3.862000000    -0.491000000     2.594000000
O    -7.911000000    -2.256000000    -0.370000000
H    -7.209000000    -1.712000000    -0.728000000
H    -7.553000000    -2.601000000     0.448000000
O    -6.302000000     0.822000000     3.548000000
H    -6.163000000     0.878000000     4.494000000
H    -5.450000000     0.565000000     3.196000000
O    -4.826000000     3.138000000     1.338000000
H    -5.413000000     2.410000000     1.542000000
H    -4.688000000     3.576000000     2.178000000
O    -3.985000000     2.179000000    -1.032000000
H    -4.489000000     2.537000000    -0.302000000
H    -3.088000000     2.131000000    -0.703000000
O    -3.388000000     2.129000000    10.001000000
H    -3.374000000     1.488000000     9.290000000
H    -3.728000000     1.644000000    10.753000000
O    -8.835000000     0.142000000     2.573000000
H    -8.017000000     0.513000000     2.903000000
H    -9.483000000     0.834000000     2.708000000
O    -5.149000000    -2.002000000     5.022000000
H    -4.638000000    -1.464000000     4.417000000
H    -4.521000000    -2.637000000     5.366000000
O    -7.739000000    -1.998000000     4.396000000
H    -6.818000000    -2.109000000     4.632000000
H    -7.815000000    -1.074000000     4.156000000
O    -5.785000000     1.170000000     6.024000000
H    -6.186000000     0.781000000     6.801000000
H    -4.862000000     0.920000000     6.080000000
O    -5.621000000    -1.151000000     0.823000000
H    -5.896000000    -1.806000000     1.465000000
H    -4.852000000    -0.738000000     1.217000000
O    -8.298000000     2.572000000    -1.745000000
H    -7.507000000     2.176000000    -1.378000000
H    -9.015000000     2.049000000    -1.389000000
O    -4.083000000     3.255000000     4.357000000
H    -4.490000000     2.829000000     5.112000000
H    -3.581000000     2.560000000     3.932000000
O    -7.164000000    -3.114000000     2.059000000
H    -7.532000000    -3.987000000     2.198000000
H    -7.460000000    -2.607000000     2.816000000
O    -5.487000000     5.582000000     3.851000000
H    -4.696000000     5.065000000     4.004000000
H    -6.200000000     4.944000000     3.885000000
O    -7.371000000     3.501000000     4.726000000
H    -7.177000000     2.592000000     4.498000000
H    -8.301000000     3.606000000     4.523000000
O    -3.726000000     0.346000000     7.471000000
H    -2.773000000     0.257000000     7.463000000
H    -4.048000000    -0.542000000     7.626000000
O    -3.304000000    -2.599000000     8.532000000
H    -4.095000000    -3.138000000     8.512000000
H    -2.585000000    -3.227000000     8.461000000
O    -6.289000000     0.603000000    -1.182000000
H    -6.114000000     0.155000000    -0.354000000
H    -5.423000000     0.842000000    -1.512000000
O    -5.614000000     5.177000000    -0.192000000
H    -5.156000000     5.917000000     0.205000000
H    -5.317000000     4.416000000     0.307000000
