215
-1445.87258
C    -3.121000000     0.817000000    -4.058000000
H    -3.104000000    -0.266000000    -3.972000000
C    -1.855000000     1.459000000    -4.161000000
C    -1.821000000     2.857000000    -4.167000000
H    -0.852000000     3.338000000    -4.272000000
C    -0.601000000     0.528000000    -4.113000000
O    -0.899000000    -0.758000000    -4.779000000
H    -0.343000000     0.288000000    -3.071000000
O     0.580000000     1.064000000    -4.838000000
C     1.800000000     0.969000000    -4.173000000
C     2.217000000     2.071000000    -3.454000000
H     1.687000000     3.004000000    -3.284000000
C     3.428000000     2.006000000    -2.832000000
O     3.704000000     3.073000000    -1.981000000
C     4.192000000     0.820000000    -2.833000000
C     5.377000000     0.602000000    -1.891000000
H     5.964000000    -0.234000000    -2.277000000
C     4.962000000     0.257000000    -0.470000000
C     4.932000000    -1.088000000    -0.055000000
H     5.253000000    -1.871000000    -0.737000000
H     6.115000000     1.408000000    -1.889000000
C     3.769000000    -0.257000000    -3.602000000
H     4.376000000    -1.158000000    -3.646000000
C     2.563000000    -0.203000000    -4.258000000
C     2.014000000    -1.374000000    -5.025000000
H     2.812000000    -2.086000000    -5.244000000
H     1.505000000    -1.089000000    -5.948000000
C     1.005000000    -2.240000000    -4.282000000
C     1.535000000    -3.270000000    -3.468000000
H     2.578000000    -3.572000000    -3.409000000
C    -0.405000000    -1.924000000    -4.254000000
C    -1.210000000    -2.688000000    -3.446000000
H    -2.226000000    -2.339000000    -3.277000000
C    -0.711000000    -3.642000000    -2.577000000
O    -1.516000000    -4.360000000    -1.682000000
C    -1.653000000    -3.947000000    -0.302000000
C    -3.084000000    -3.872000000     0.204000000
C    -3.278000000    -3.953000000     1.569000000
H    -2.496000000    -4.255000000     2.262000000
C    -4.111000000    -3.537000000    -0.679000000
H    -3.854000000    -3.423000000    -1.729000000
O    -0.798000000    -4.810000000     0.403000000
H    -1.280000000    -2.923000000    -0.153000000
C     0.664000000    -3.959000000    -2.605000000
C     1.269000000    -5.036000000    -1.738000000
H     2.174000000    -5.436000000    -2.200000000
H     0.545000000    -5.851000000    -1.673000000
C     1.487000000    -4.498000000    -0.380000000
C     2.802000000    -4.071000000    -0.040000000
H     3.593000000    -4.202000000    -0.774000000
C     0.499000000    -4.395000000     0.611000000
C     0.722000000    -3.933000000     1.887000000
H    -0.035000000    -3.987000000     2.665000000
C     2.043000000    -3.542000000     2.267000000
O     2.253000000    -2.812000000     3.407000000
C     2.309000000    -1.370000000     3.314000000
C     1.362000000    -0.884000000     4.404000000
C     0.415000000    -1.644000000     5.098000000
H     0.469000000    -2.730000000     5.087000000
C     1.290000000     0.500000000     4.485000000
H     1.898000000     1.100000000     3.812000000
O     3.599000000    -0.885000000     3.334000000
H     1.911000000    -0.967000000     2.372000000
C     3.054000000    -3.601000000     1.246000000
C     4.491000000    -3.065000000     1.557000000
H     5.246000000    -3.589000000     0.966000000
H     4.727000000    -3.336000000     2.588000000
C     4.588000000    -1.497000000     1.215000000
C     4.192000000    -0.511000000     2.145000000
C     4.144000000     0.773000000     1.718000000
H     3.775000000     1.496000000     2.441000000
C     4.502000000     1.133000000     0.484000000
O     4.443000000     2.523000000     0.156000000
C     3.424000000     2.949000000    -0.595000000
H     2.749000000     2.090000000    -0.467000000
C     2.747000000     4.213000000     0.055000000
C     1.706000000     4.902000000    -0.598000000
H     1.542000000     4.639000000    -1.640000000
C     3.071000000     4.599000000     1.328000000
H     3.880000000     4.027000000     1.773000000
C     2.357000000     5.560000000     2.020000000
O     2.633000000     5.909000000     3.289000000
C     1.310000000     6.236000000     1.321000000
H     0.767000000     6.972000000     1.908000000
C     0.920000000     5.853000000     0.049000000
O    -0.134000000     6.475000000    -0.611000000
C    -0.332000000     6.417000000    -1.897000000
C    -1.405000000     5.744000000    -2.355000000
H    -1.944000000     5.110000000    -1.655000000
C     0.423000000     7.228000000    -2.793000000
H     1.155000000     7.925000000    -2.394000000
C     0.055000000     7.195000000    -4.153000000
H     0.710000000     7.723000000    -4.841000000
C    -1.029000000     6.440000000    -4.592000000
H    -1.245000000     6.461000000    -5.657000000
C    -1.776000000     5.738000000    -3.714000000
O    -2.868000000     4.988000000    -3.988000000
C    -2.954000000     3.615000000    -4.070000000
C    -4.196000000     2.969000000    -3.905000000
H    -5.128000000     3.514000000    -3.774000000
C    -4.245000000     1.545000000    -3.896000000
O    -5.392000000     0.896000000    -3.491000000
C    -5.726000000    -0.455000000    -3.517000000
C    -5.829000000    -1.062000000    -2.294000000
H    -5.638000000    -0.440000000    -1.423000000
C    -5.853000000    -1.151000000    -4.691000000
H    -5.801000000    -0.628000000    -5.642000000
C    -6.301000000    -2.487000000    -4.615000000
H    -6.542000000    -3.029000000    -5.526000000
C    -6.458000000    -3.108000000    -3.451000000
H    -6.888000000    -4.102000000    -3.364000000
C    -6.271000000    -2.369000000    -2.234000000
O    -6.441000000    -2.977000000    -1.004000000
C    -5.372000000    -3.241000000    -0.140000000
C    -5.588000000    -3.437000000     1.223000000
H    -6.597000000    -3.365000000     1.620000000
C    -4.566000000    -3.724000000     2.068000000
O    -4.920000000    -3.857000000     3.435000000
C    -4.112000000    -3.941000000     4.499000000
C    -3.240000000    -2.878000000     4.771000000
H    -3.394000000    -1.948000000     4.229000000
C    -4.133000000    -5.096000000     5.306000000
H    -4.812000000    -5.910000000     5.063000000
C    -3.203000000    -5.113000000     6.363000000
H    -3.166000000    -6.061000000     6.895000000
C    -2.398000000    -4.028000000     6.690000000
H    -1.689000000    -4.006000000     7.513000000
C    -2.352000000    -2.922000000     5.843000000
O    -1.719000000    -1.780000000     6.287000000
C    -0.690000000    -1.060000000     5.762000000
C    -0.733000000     0.340000000     5.845000000
H    -1.566000000     0.870000000     6.299000000
C     0.340000000     1.083000000     5.309000000
O     0.249000000     2.505000000     5.551000000
C     1.381000000     3.311000000     5.462000000
C     2.458000000     3.131000000     6.339000000
H     2.417000000     2.552000000     7.257000000
C     3.560000000     3.920000000     6.195000000
H     4.367000000     3.696000000     6.888000000
C     3.641000000     4.829000000     5.141000000
H     4.569000000     5.369000000     4.973000000
C     2.547000000     4.990000000     4.302000000
C     1.463000000     4.203000000     4.422000000
H     0.660000000     4.289000000     3.695000000
C    -1.463000000     0.862000000     2.061000000
H    -2.010000000     0.507000000     2.931000000
C    -0.612000000    -0.092000000     1.468000000
H    -0.583000000    -1.084000000     1.912000000
C     0.162000000     0.213000000     0.386000000
H     0.939000000    -0.437000000     0.048000000
C     0.120000000     1.520000000    -0.151000000
H     0.716000000     1.599000000    -1.056000000
C    -0.785000000     2.511000000     0.383000000
H    -1.129000000     3.428000000    -0.090000000
C    -1.560000000     2.143000000     1.489000000
C    -2.494000000     3.168000000     2.192000000
O    -2.886000000     4.138000000     1.496000000
O    -3.007000000     2.959000000     3.244000000
O    -7.089000000     4.417000000     0.171000000
H    -6.665000000     4.733000000     0.968000000
H    -7.120000000     5.182000000    -0.403000000
O    -4.674000000     7.264000000    -0.697000000
H    -4.595000000     6.315000000    -0.793000000
H    -3.834000000     7.538000000    -0.330000000
O    -4.564000000     0.687000000     7.599000000
H    -3.983000000     1.307000000     7.159000000
H    -5.433000000     0.879000000     7.245000000
O    -0.285000000     7.012000000     5.619000000
H     0.159000000     7.649000000     5.059000000
H    -0.548000000     6.311000000     5.023000000
O    -8.677000000     1.841000000     3.112000000
H    -9.141000000     2.106000000     3.907000000
H    -8.455000000     2.665000000     2.678000000
O    -2.113000000     5.161000000     4.591000000
H    -2.613000000     4.449000000     4.191000000
H    -1.854000000     4.820000000     5.447000000
O    -3.267000000     7.762000000     3.679000000
H    -3.132000000     7.448000000     2.785000000
H    -3.238000000     6.972000000     4.218000000
O    -7.478000000     2.436000000    -1.745000000
H    -7.025000000     3.166000000    -1.321000000
H    -6.864000000     1.705000000    -1.684000000
O    -5.112000000     1.575000000     3.519000000
H    -4.204000000     1.879000000     3.518000000
H    -5.612000000     2.318000000     3.857000000
O    -2.590000000     6.708000000     1.173000000
H    -1.647000000     6.757000000     1.016000000
H    -2.744000000     5.798000000     1.425000000
O    -3.921000000     1.100000000    -0.740000000
H    -3.942000000     2.015000000    -1.021000000
H    -2.990000000     0.894000000    -0.660000000
O    -1.265000000     4.604000000     7.052000000
H    -1.194000000     4.470000000     7.997000000
H    -0.898000000     5.476000000     6.905000000
O    -7.053000000     0.409000000     6.252000000
H    -7.725000000    -0.270000000     6.194000000
H    -6.559000000     0.328000000     5.436000000
O    -4.512000000     4.504000000    -0.696000000
H    -3.680000000     4.375000000    -0.240000000
H    -5.177000000     4.245000000    -0.059000000
O    -5.476000000     4.773000000     5.250000000
H    -5.335000000     4.079000000     5.894000000
H    -6.240000000     5.249000000     5.576000000
O    -6.479000000     8.061000000     1.913000000
H    -6.187000000     8.203000000     1.013000000
H    -6.061000000     7.241000000     2.175000000
O    -3.144000000     2.861000000     6.375000000
H    -2.539000000     3.505000000     6.743000000
H    -2.798000000     2.679000000     5.501000000
O    -5.738000000     0.103000000     1.310000000
H    -4.850000000     0.184000000     0.962000000
H    -5.733000000     0.638000000     2.104000000
O    -5.316000000     5.038000000     2.495000000
H    -5.492000000     4.981000000     3.434000000
H    -4.436000000     4.674000000     2.394000000
