215
-1453.08286
C    -1.867000000    -1.899000000    -4.324000000
H    -1.311000000    -2.760000000    -3.963000000
C    -1.331000000    -0.644000000    -4.654000000
C    -2.085000000     0.416000000    -5.014000000
H    -1.678000000     1.424000000    -5.045000000
C     0.153000000    -0.492000000    -4.394000000
O     0.825000000    -1.655000000    -4.690000000
H     0.247000000    -0.356000000    -3.306000000
O     0.653000000     0.711000000    -4.987000000
C     1.410000000     1.526000000    -4.172000000
C     0.837000000     2.693000000    -3.608000000
H    -0.221000000     2.876000000    -3.777000000
C     1.554000000     3.370000000    -2.586000000
O     0.890000000     4.323000000    -1.908000000
C     2.871000000     3.031000000    -2.262000000
C     3.638000000     3.858000000    -1.236000000
H     4.708000000     3.799000000    -1.448000000
C     3.425000000     3.345000000     0.214000000
C     4.181000000     2.312000000     0.732000000
H     4.900000000     1.837000000     0.069000000
H     3.326000000     4.904000000    -1.270000000
C     3.429000000     1.989000000    -2.950000000
H     4.435000000     1.723000000    -2.635000000
C     2.725000000     1.182000000    -3.854000000
C     3.369000000    -0.044000000    -4.417000000
H     4.435000000     0.151000000    -4.545000000
H     2.946000000    -0.200000000    -5.412000000
C     3.005000000    -1.360000000    -3.633000000
C     3.933000000    -1.778000000    -2.642000000
H     4.858000000    -1.240000000    -2.450000000
C     1.868000000    -2.111000000    -3.866000000
C     1.612000000    -3.253000000    -3.114000000
H     0.713000000    -3.849000000    -3.254000000
C     2.467000000    -3.585000000    -2.032000000
O     2.111000000    -4.571000000    -1.252000000
C     1.469000000    -4.036000000    -0.035000000
C     0.177000000    -4.759000000     0.358000000
C    -0.323000000    -4.629000000     1.690000000
H     0.205000000    -4.013000000     2.414000000
C    -0.512000000    -5.566000000    -0.564000000
H    -0.286000000    -5.645000000    -1.624000000
O     2.498000000    -4.117000000     1.037000000
H     1.244000000    -2.966000000    -0.153000000
C     3.649000000    -2.869000000    -1.747000000
C     4.587000000    -3.175000000    -0.557000000
H     5.643000000    -3.039000000    -0.800000000
H     4.448000000    -4.240000000    -0.363000000
C     4.155000000    -2.441000000     0.691000000
C     4.774000000    -1.204000000     1.134000000
H     5.529000000    -0.754000000     0.494000000
C     3.162000000    -3.002000000     1.451000000
C     2.814000000    -2.425000000     2.660000000
H     2.023000000    -2.896000000     3.238000000
C     3.328000000    -1.162000000     3.019000000
O     2.762000000    -0.546000000     4.168000000
C     1.794000000     0.595000000     3.997000000
C     0.536000000     0.493000000     4.800000000
C     0.103000000    -0.732000000     5.324000000
H     0.595000000    -1.647000000     5.005000000
C    -0.240000000     1.710000000     4.945000000
H     0.134000000     2.658000000     4.567000000
O     2.478000000     1.869000000     3.984000000
H     1.454000000     0.404000000     2.969000000
C     4.379000000    -0.597000000     2.316000000
C     4.977000000     0.759000000     2.592000000
H     5.941000000     0.769000000     2.080000000
H     5.170000000     0.800000000     3.666000000
C     4.049000000     1.822000000     2.024000000
C     2.989000000     2.382000000     2.776000000
C     2.200000000     3.438000000     2.227000000
H     1.272000000     3.732000000     2.710000000
C     2.415000000     3.877000000     0.930000000
O     1.478000000     4.633000000     0.310000000
C     0.493000000     4.028000000    -0.531000000
H     0.565000000     2.934000000    -0.440000000
C    -0.834000000     4.667000000    -0.246000000
C    -1.803000000     4.646000000    -1.257000000
H    -1.595000000     4.178000000    -2.215000000
C    -1.222000000     5.116000000     1.018000000
H    -0.487000000     5.044000000     1.816000000
C    -2.498000000     5.672000000     1.202000000
O    -2.778000000     6.260000000     2.409000000
C    -3.441000000     5.644000000     0.222000000
H    -4.400000000     6.127000000     0.390000000
C    -3.125000000     5.086000000    -1.056000000
O    -4.075000000     5.130000000    -2.025000000
C    -3.918000000     4.578000000    -3.339000000
C    -4.173000000     3.234000000    -3.663000000
H    -4.611000000     2.563000000    -2.929000000
C    -3.330000000     5.422000000    -4.258000000
H    -3.055000000     6.440000000    -3.996000000
C    -3.267000000     4.983000000    -5.581000000
H    -2.974000000     5.694000000    -6.349000000
C    -3.755000000     3.730000000    -5.951000000
H    -3.808000000     3.467000000    -7.004000000
C    -4.017000000     2.774000000    -4.962000000
O    -4.329000000     1.467000000    -5.208000000
C    -3.517000000     0.369000000    -5.007000000
C    -4.081000000    -0.870000000    -4.699000000
H    -5.159000000    -0.884000000    -4.562000000
C    -3.294000000    -1.996000000    -4.334000000
O    -3.864000000    -3.176000000    -3.922000000
C    -3.417000000    -4.493000000    -3.763000000
C    -3.137000000    -4.990000000    -2.502000000
H    -3.221000000    -4.367000000    -1.615000000
C    -3.473000000    -5.348000000    -4.897000000
H    -3.667000000    -4.799000000    -5.815000000
C    -3.082000000    -6.688000000    -4.725000000
H    -3.104000000    -7.296000000    -5.626000000
C    -2.697000000    -7.164000000    -3.510000000
H    -2.420000000    -8.213000000    -3.455000000
C    -2.746000000    -6.317000000    -2.416000000
O    -2.483000000    -6.815000000    -1.137000000
C    -1.651000000    -6.219000000    -0.152000000
C    -2.198000000    -5.967000000     1.115000000
H    -3.165000000    -6.399000000     1.360000000
C    -1.445000000    -5.399000000     2.056000000
O    -1.960000000    -5.333000000     3.308000000
C    -1.236000000    -4.822000000     4.419000000
C    -1.686000000    -3.629000000     4.907000000
H    -2.488000000    -3.115000000     4.385000000
C    -0.347000000    -5.631000000     5.206000000
H     0.053000000    -6.578000000     4.854000000
C     0.320000000    -4.965000000     6.255000000
H     1.171000000    -5.489000000     6.682000000
C    -0.037000000    -3.659000000     6.670000000
H     0.576000000    -3.104000000     7.376000000
C    -1.115000000    -3.104000000     6.070000000
O    -1.588000000    -1.916000000     6.520000000
C    -1.119000000    -0.767000000     6.014000000
C    -1.839000000     0.439000000     6.259000000
H    -2.794000000     0.377000000     6.774000000
C    -1.411000000     1.652000000     5.658000000
O    -2.184000000     2.897000000     5.792000000
C    -1.851000000     4.139000000     5.273000000
C    -0.969000000     5.041000000     5.893000000
H    -0.453000000     4.734000000     6.799000000
C    -0.673000000     6.325000000     5.360000000
H     0.024000000     6.987000000     5.867000000
C    -1.318000000     6.653000000     4.207000000
H    -1.095000000     7.591000000     3.705000000
C    -2.245000000     5.837000000     3.568000000
C    -2.504000000     4.548000000     4.128000000
H    -3.101000000     3.849000000     3.547000000
C    -1.421000000    -1.346000000     0.014000000
H    -1.810000000    -2.218000000    -0.504000000
C    -0.256000000    -0.637000000    -0.339000000
H     0.393000000    -1.044000000    -1.110000000
C     0.102000000     0.506000000     0.259000000
H     0.970000000     1.098000000     0.070000000
C    -0.737000000     1.037000000     1.207000000
H    -0.476000000     1.954000000     1.730000000
C    -1.946000000     0.434000000     1.647000000
H    -2.606000000     0.818000000     2.422000000
C    -2.230000000    -0.807000000     1.094000000
C    -3.513000000    -1.480000000     1.453000000
O    -4.119000000    -0.945000000     2.362000000
O    -4.018000000    -2.337000000     0.718000000
O    -7.660000000    -1.178000000    -0.610000000
H    -7.308000000    -0.724000000     0.156000000
H    -7.606000000    -0.534000000    -1.315000000
O    -5.542000000     1.849000000    -0.385000000
H    -4.689000000     2.232000000    -0.183000000
H    -5.339000000     1.068000000    -0.901000000
O    -2.543000000     1.214000000    -1.499000000
H    -3.170000000     0.499000000    -1.611000000
H    -1.997000000     0.940000000    -0.762000000
O    -5.553000000    -3.260000000     3.442000000
H    -5.238000000    -4.164000000     3.453000000
H    -5.041000000    -2.836000000     2.754000000
O    -5.550000000    -6.112000000     2.825000000
H    -5.434000000    -7.059000000     2.749000000
H    -6.265000000    -5.910000000     2.221000000
O    -6.122000000    -5.907000000     5.493000000
H    -6.557000000    -5.072000000     5.665000000
H    -5.945000000    -5.896000000     4.552000000
O    -6.888000000    -0.081000000     2.428000000
H    -7.469000000    -0.840000000     2.480000000
H    -6.016000000    -0.434000000     2.604000000
O    -6.125000000    -3.573000000    -0.373000000
H    -5.307000000    -3.377000000     0.084000000
H    -6.572000000    -2.729000000    -0.436000000
O    -8.743000000     1.993000000     1.779000000
H    -8.877000000     2.669000000     2.443000000
H    -8.030000000     1.456000000     2.124000000
O    -4.866000000     1.426000000     3.710000000
H    -5.703000000     1.115000000     3.365000000
H    -4.233000000     0.761000000     3.437000000
O    -7.071000000     1.353000000     5.430000000
H    -7.025000000     0.400000000     5.360000000
H    -6.279000000     1.663000000     4.991000000
O    -7.717000000    -5.469000000     1.280000000
H    -7.279000000    -5.051000000     0.538000000
H    -8.363000000    -6.051000000     0.879000000
O    -6.663000000    -1.407000000     5.626000000
H    -6.202000000    -1.683000000     4.834000000
H    -6.796000000    -2.215000000     6.121000000
O    -4.409000000    -0.691000000    -1.402000000
H    -4.237000000    -1.224000000    -0.626000000
H    -5.180000000    -1.092000000    -1.802000000
O    -6.511000000     3.992000000     3.432000000
H    -6.170000000     4.801000000     3.813000000
H    -5.760000000     3.398000000     3.419000000
O    -8.096000000    -2.606000000     2.658000000
H    -7.267000000    -2.912000000     3.026000000
H    -8.344000000    -3.284000000     2.029000000
O   -10.025000000    -2.578000000     0.182000000
H    -9.201000000    -2.298000000    -0.216000000
H   -10.217000000    -3.419000000    -0.233000000
O    -7.099000000    -4.526000000    -2.951000000
H    -7.382000000    -3.952000000    -2.239000000
H    -6.569000000    -5.197000000    -2.521000000
O    -7.910000000     2.921000000    -0.874000000
H    -8.315000000     2.501000000    -0.115000000
H    -6.983000000     2.691000000    -0.809000000
