215
-1465.94332
C    -1.718000000    -1.816000000    -4.459000000
H    -1.241000000    -2.729000000    -4.111000000
C    -1.087000000    -0.574000000    -4.587000000
C    -1.952000000     0.542000000    -4.830000000
H    -1.570000000     1.556000000    -4.920000000
C     0.393000000    -0.399000000    -4.285000000
O     1.194000000    -1.545000000    -4.644000000
H     0.376000000    -0.298000000    -3.190000000
O     1.037000000     0.726000000    -4.955000000
C     1.750000000     1.541000000    -4.114000000
C     1.138000000     2.591000000    -3.462000000
H     0.128000000     2.900000000    -3.719000000
C     1.759000000     3.270000000    -2.446000000
O     1.038000000     4.336000000    -1.776000000
C     3.081000000     2.918000000    -2.072000000
C     3.821000000     3.655000000    -1.003000000
H     4.884000000     3.504000000    -1.200000000
C     3.472000000     3.128000000     0.370000000
C     4.268000000     2.107000000     0.930000000
H     5.179000000     1.701000000     0.498000000
H     3.522000000     4.705000000    -0.986000000
C     3.697000000     1.830000000    -2.749000000
H     4.693000000     1.442000000    -2.551000000
C     3.049000000     1.150000000    -3.705000000
C     3.689000000    -0.057000000    -4.276000000
H     4.779000000    -0.111000000    -4.244000000
H     3.354000000    -0.220000000    -5.303000000
C     3.247000000    -1.264000000    -3.453000000
C     3.998000000    -1.657000000    -2.323000000
H     4.930000000    -1.122000000    -2.160000000
C     2.117000000    -1.953000000    -3.684000000
C     1.640000000    -3.006000000    -2.850000000
H     0.645000000    -3.413000000    -3.010000000
C     2.478000000    -3.499000000    -1.821000000
O     1.948000000    -4.405000000    -0.992000000
C     1.422000000    -3.949000000     0.321000000
C     0.091000000    -4.718000000     0.506000000
C    -0.598000000    -4.555000000     1.723000000
H    -0.132000000    -4.021000000     2.548000000
C    -0.612000000    -5.265000000    -0.556000000
H    -0.244000000    -5.283000000    -1.579000000
O     2.398000000    -4.209000000     1.304000000
H     1.288000000    -2.858000000     0.280000000
C     3.614000000    -2.752000000    -1.535000000
C     4.441000000    -3.283000000    -0.404000000
H     5.486000000    -3.233000000    -0.716000000
H     4.302000000    -4.360000000    -0.285000000
C     4.142000000    -2.636000000     0.933000000
C     4.749000000    -1.442000000     1.321000000
H     5.353000000    -0.937000000     0.571000000
C     3.143000000    -3.128000000     1.725000000
C     2.657000000    -2.529000000     2.885000000
H     1.783000000    -2.914000000     3.404000000
C     3.232000000    -1.307000000     3.268000000
O     2.609000000    -0.652000000     4.260000000
C     1.681000000     0.343000000     3.859000000
C     0.437000000     0.364000000     4.715000000
C    -0.009000000    -0.780000000     5.374000000
H     0.567000000    -1.677000000     5.164000000
C    -0.428000000     1.478000000     4.716000000
H    -0.183000000     2.358000000     4.126000000
O     2.276000000     1.585000000     4.058000000
H     1.383000000     0.135000000     2.821000000
C     4.308000000    -0.858000000     2.521000000
C     4.785000000     0.588000000     2.793000000
H     5.762000000     0.698000000     2.318000000
H     4.991000000     0.754000000     3.853000000
C     3.960000000     1.650000000     2.184000000
C     2.768000000     2.152000000     2.912000000
C     2.125000000     3.250000000     2.409000000
H     1.284000000     3.735000000     2.898000000
C     2.425000000     3.684000000     1.096000000
O     1.569000000     4.562000000     0.482000000
C     0.570000000     4.094000000    -0.432000000
H     0.516000000     3.010000000    -0.253000000
C    -0.707000000     4.791000000    -0.193000000
C    -1.754000000     4.570000000    -1.108000000
H    -1.598000000     3.923000000    -1.967000000
C    -1.046000000     5.498000000     0.973000000
H    -0.361000000     5.692000000     1.795000000
C    -2.339000000     5.975000000     1.169000000
O    -2.747000000     6.386000000     2.397000000
C    -3.262000000     5.910000000     0.128000000
H    -4.252000000     6.348000000     0.225000000
C    -2.999000000     5.151000000    -0.953000000
O    -3.941000000     5.077000000    -1.947000000
C    -3.761000000     4.578000000    -3.219000000
C    -4.149000000     3.291000000    -3.480000000
H    -4.683000000     2.689000000    -2.749000000
C    -3.114000000     5.407000000    -4.189000000
H    -2.855000000     6.426000000    -3.912000000
C    -2.812000000     4.885000000    -5.460000000
H    -2.290000000     5.530000000    -6.162000000
C    -3.124000000     3.534000000    -5.742000000
H    -2.751000000     3.160000000    -6.692000000
C    -3.800000000     2.766000000    -4.727000000
O    -4.176000000     1.470000000    -5.037000000
C    -3.339000000     0.409000000    -4.993000000
C    -3.998000000    -0.854000000    -4.963000000
H    -5.065000000    -0.871000000    -5.170000000
C    -3.110000000    -1.929000000    -4.805000000
O    -3.784000000    -3.152000000    -4.824000000
C    -3.195000000    -4.343000000    -4.515000000
C    -3.188000000    -4.751000000    -3.174000000
H    -3.646000000    -4.139000000    -2.401000000
C    -2.682000000    -5.204000000    -5.548000000
H    -2.614000000    -4.894000000    -6.588000000
C    -2.159000000    -6.439000000    -5.152000000
H    -1.643000000    -7.076000000    -5.866000000
C    -2.151000000    -6.851000000    -3.805000000
H    -1.806000000    -7.846000000    -3.536000000
C    -2.624000000    -6.007000000    -2.814000000
O    -2.523000000    -6.428000000    -1.459000000
C    -1.905000000    -5.716000000    -0.427000000
C    -2.663000000    -5.425000000     0.696000000
H    -3.639000000    -5.863000000     0.889000000
C    -1.989000000    -4.856000000     1.779000000
O    -2.738000000    -4.543000000     2.974000000
C    -2.135000000    -4.409000000     4.208000000
C    -2.279000000    -3.231000000     4.865000000
H    -2.853000000    -2.417000000     4.429000000
C    -1.486000000    -5.516000000     4.804000000
H    -1.455000000    -6.452000000     4.252000000
C    -0.801000000    -5.345000000     5.962000000
H    -0.146000000    -6.171000000     6.227000000
C    -0.785000000    -4.103000000     6.578000000
H    -0.181000000    -4.018000000     7.478000000
C    -1.492000000    -3.055000000     6.003000000
O    -1.633000000    -1.861000000     6.747000000
C    -1.164000000    -0.746000000     6.193000000
C    -1.934000000     0.440000000     6.236000000
H    -2.895000000     0.366000000     6.738000000
C    -1.611000000     1.498000000     5.408000000
O    -2.402000000     2.628000000     5.349000000
C    -2.045000000     3.900000000     4.938000000
C    -1.033000000     4.609000000     5.589000000
H    -0.387000000     4.142000000     6.328000000
C    -0.699000000     5.902000000     5.327000000
H     0.087000000     6.332000000     5.943000000
C    -1.404000000     6.561000000     4.327000000
H    -1.149000000     7.561000000     3.983000000
C    -2.353000000     5.825000000     3.562000000
C    -2.759000000     4.564000000     3.985000000
H    -3.664000000     4.089000000     3.616000000
C    -2.092000000    -1.994000000    -0.178000000
H    -2.630000000    -2.780000000    -0.704000000
C    -0.831000000    -1.491000000    -0.760000000
H    -0.420000000    -1.864000000    -1.695000000
C    -0.181000000    -0.513000000    -0.026000000
H     0.687000000    -0.127000000    -0.449000000
C    -0.779000000     0.118000000     1.065000000
H    -0.294000000     0.991000000     1.494000000
C    -1.955000000    -0.451000000     1.638000000
H    -2.368000000    -0.200000000     2.612000000
C    -2.598000000    -1.510000000     0.983000000
C    -3.952000000    -1.986000000     1.492000000
O    -4.467000000    -1.424000000     2.425000000
O    -4.564000000    -2.893000000     0.960000000
O    -7.285000000     0.020000000     4.391000000
H    -7.100000000    -0.871000000     4.094000000
H    -6.447000000     0.476000000     4.312000000
O    -9.707000000    -2.778000000     3.737000000
H    -9.416000000    -1.896000000     3.507000000
H   -10.084000000    -3.124000000     2.928000000
O    -3.271000000     2.208000000     1.732000000
H    -3.177000000     3.160000000     1.778000000
H    -3.032000000     1.988000000     0.832000000
O    -2.512000000     1.423000000    -0.803000000
H    -1.911000000     0.733000000    -0.522000000
H    -2.987000000     1.041000000    -1.541000000
O    -6.257000000    -2.802000000     3.752000000
H    -5.584000000    -2.446000000     3.171000000
H    -6.707000000    -3.460000000     3.222000000
O    -7.214000000    -6.419000000     0.056000000
H    -6.377000000    -6.883000000     0.045000000
H    -7.761000000    -6.924000000     0.657000000
O    -5.603000000    -5.408000000     5.360000000
H    -6.533000000    -5.240000000     5.514000000
H    -5.333000000    -4.719000000     4.752000000
O    -6.311000000     0.426000000     0.832000000
H    -5.922000000    -0.172000000     0.195000000
H    -5.813000000     0.277000000     1.636000000
O    -7.269000000    -4.440000000    -2.236000000
H    -7.491000000    -4.860000000    -1.405000000
H    -8.027000000    -4.604000000    -2.798000000
O    -5.849000000    -2.200000000    -1.305000000
H    -5.405000000    -2.460000000    -0.498000000
H    -6.367000000    -2.967000000    -1.550000000
O    -8.911000000     0.900000000     0.567000000
H    -9.040000000     1.766000000     0.954000000
H    -8.060000000     0.614000000     0.899000000
O    -4.846000000     0.908000000     3.486000000
H    -4.147000000     1.349000000     3.005000000
H    -4.730000000    -0.019000000     3.281000000
O    -5.463000000    -1.413000000     6.128000000
H    -5.713000000    -1.809000000     5.293000000
H    -4.538000000    -1.638000000     6.232000000
O    -4.791000000     0.248000000    -2.045000000
H    -5.035000000    -0.640000000    -1.785000000
H    -4.400000000     0.145000000    -2.912000000
O    -6.072000000     3.330000000     0.224000000
H    -6.379000000     2.475000000     0.526000000
H    -5.417000000     3.127000000    -0.444000000
O    -7.027000000    -4.108000000     1.544000000
H    -6.170000000    -3.771000000     1.283000000
H    -7.118000000    -4.930000000     1.061000000
O    -9.038000000    -2.504000000     0.232000000
H    -8.399000000    -2.788000000     0.885000000
H    -9.322000000    -3.313000000    -0.193000000
O    -5.087000000     1.960000000     6.105000000
H    -4.953000000     1.042000000     5.867000000
H    -4.837000000     2.449000000     5.321000000
O    -7.485000000     0.818000000    -1.972000000
H    -7.784000000     0.799000000    -1.062000000
H    -6.643000000     0.362000000    -1.956000000
