215
-1452.53450
C    -2.907000000     0.960000000    -4.402000000
H    -2.931000000    -0.122000000    -4.505000000
C    -1.604000000     1.567000000    -4.445000000
C    -1.577000000     2.931000000    -4.239000000
H    -0.663000000     3.515000000    -4.170000000
C    -0.407000000     0.731000000    -4.514000000
O    -0.616000000    -0.512000000    -5.089000000
H    -0.163000000     0.512000000    -3.464000000
O     0.709000000     1.381000000    -5.100000000
C     1.868000000     1.367000000    -4.302000000
C     2.107000000     2.389000000    -3.351000000
H     1.430000000     3.236000000    -3.284000000
C     3.077000000     2.243000000    -2.396000000
O     3.107000000     3.128000000    -1.387000000
C     3.962000000     1.176000000    -2.422000000
C     5.092000000     1.071000000    -1.403000000
H     5.855000000     0.373000000    -1.753000000
C     4.645000000     0.433000000    -0.118000000
C     4.680000000    -0.945000000     0.133000000
H     4.974000000    -1.602000000    -0.681000000
H     5.575000000     2.009000000    -1.121000000
C     3.832000000     0.249000000    -3.524000000
H     4.430000000    -0.649000000    -3.395000000
C     2.694000000     0.249000000    -4.357000000
C     2.249000000    -1.002000000    -5.150000000
H     3.119000000    -1.629000000    -5.351000000
H     1.806000000    -0.769000000    -6.120000000
C     1.297000000    -1.846000000    -4.377000000
C     1.794000000    -2.962000000    -3.728000000
H     2.868000000    -3.126000000    -3.690000000
C    -0.045000000    -1.512000000    -4.413000000
C    -0.898000000    -2.472000000    -3.854000000
H    -1.951000000    -2.226000000    -3.964000000
C    -0.387000000    -3.486000000    -3.029000000
O    -1.335000000    -4.067000000    -2.222000000
C    -1.294000000    -3.748000000    -0.830000000
C    -2.706000000    -3.687000000    -0.282000000
C    -2.948000000    -4.131000000     1.005000000
H    -2.194000000    -4.587000000     1.640000000
C    -3.703000000    -3.043000000    -0.987000000
H    -3.533000000    -2.686000000    -2.000000000
O    -0.569000000    -4.826000000    -0.056000000
H    -0.848000000    -2.756000000    -0.664000000
C     0.977000000    -3.729000000    -2.931000000
C     1.595000000    -4.828000000    -2.080000000
H     2.539000000    -5.015000000    -2.596000000
H     0.980000000    -5.721000000    -2.207000000
C     1.805000000    -4.448000000    -0.584000000
C     3.107000000    -4.146000000    -0.133000000
H     3.951000000    -4.158000000    -0.818000000
C     0.698000000    -4.438000000     0.283000000
C     0.890000000    -3.984000000     1.570000000
H     0.123000000    -4.047000000     2.337000000
C     2.167000000    -3.633000000     2.042000000
O     2.204000000    -3.088000000     3.331000000
C     2.113000000    -1.699000000     3.562000000
C     1.328000000    -1.327000000     4.809000000
C     0.039000000    -1.955000000     4.971000000
H    -0.159000000    -2.804000000     4.323000000
C     1.610000000    -0.234000000     5.645000000
H     2.497000000     0.381000000     5.512000000
O     3.365000000    -1.132000000     3.505000000
H     1.650000000    -1.287000000     2.653000000
C     3.288000000    -3.678000000     1.182000000
C     4.552000000    -2.979000000     1.604000000
H     5.409000000    -3.470000000     1.139000000
H     4.789000000    -3.139000000     2.658000000
C     4.427000000    -1.482000000     1.386000000
C     3.888000000    -0.611000000     2.381000000
C     3.783000000     0.777000000     2.228000000
H     3.334000000     1.380000000     3.013000000
C     4.142000000     1.292000000     0.934000000
O     3.866000000     2.601000000     0.755000000
C     2.644000000     2.893000000    -0.046000000
H     1.913000000     2.071000000    -0.056000000
C     1.940000000     4.115000000     0.600000000
C     1.111000000     4.929000000    -0.223000000
H     0.986000000     4.760000000    -1.289000000
C     1.841000000     4.132000000     1.987000000
H     2.240000000     3.316000000     2.585000000
C     0.968000000     5.088000000     2.523000000
O     0.784000000     5.095000000     3.907000000
C     0.290000000     6.026000000     1.747000000
H    -0.406000000     6.736000000     2.186000000
C     0.284000000     5.935000000     0.353000000
O    -0.643000000     6.693000000    -0.371000000
C    -0.661000000     6.710000000    -1.772000000
C    -1.661000000     5.981000000    -2.410000000
H    -2.533000000     5.620000000    -1.871000000
C     0.317000000     7.295000000    -2.518000000
H     1.040000000     7.927000000    -2.009000000
C     0.406000000     7.124000000    -3.881000000
H     1.244000000     7.533000000    -4.440000000
C    -0.538000000     6.342000000    -4.539000000
H    -0.497000000     6.231000000    -5.620000000
C    -1.599000000     5.836000000    -3.773000000
O    -2.657000000     5.140000000    -4.350000000
C    -2.719000000     3.739000000    -4.224000000
C    -3.976000000     3.148000000    -4.407000000
H    -4.863000000     3.775000000    -4.385000000
C    -4.049000000     1.753000000    -4.544000000
O    -5.291000000     1.202000000    -4.647000000
C    -5.620000000    -0.100000000    -4.246000000
C    -5.561000000    -0.457000000    -2.897000000
H    -5.381000000     0.340000000    -2.179000000
C    -5.930000000    -1.042000000    -5.233000000
H    -6.075000000    -0.670000000    -6.244000000
C    -6.225000000    -2.334000000    -4.849000000
H    -6.490000000    -3.018000000    -5.651000000
C    -6.240000000    -2.740000000    -3.476000000
H    -6.382000000    -3.773000000    -3.170000000
C    -5.814000000    -1.774000000    -2.528000000
O    -5.927000000    -2.125000000    -1.170000000
C    -4.972000000    -2.820000000    -0.431000000
C    -5.211000000    -3.283000000     0.865000000
H    -6.195000000    -3.159000000     1.310000000
C    -4.182000000    -3.987000000     1.546000000
O    -4.526000000    -4.442000000     2.863000000
C    -3.729000000    -4.550000000     4.002000000
C    -3.231000000    -3.377000000     4.625000000
H    -3.697000000    -2.515000000     4.152000000
C    -3.324000000    -5.792000000     4.532000000
H    -3.685000000    -6.716000000     4.087000000
C    -2.430000000    -5.828000000     5.585000000
H    -2.030000000    -6.814000000     5.811000000
C    -1.991000000    -4.652000000     6.198000000
H    -1.381000000    -4.681000000     7.098000000
C    -2.344000000    -3.390000000     5.654000000
O    -2.062000000    -2.211000000     6.245000000
C    -0.911000000    -1.480000000     5.923000000
C    -0.486000000    -0.358000000     6.715000000
H    -1.166000000     0.179000000     7.371000000
C     0.723000000     0.245000000     6.485000000
O     0.955000000     1.445000000     7.081000000
C     1.445000000     2.611000000     6.458000000
C     2.727000000     3.061000000     6.924000000
H     3.218000000     2.586000000     7.770000000
C     3.294000000     4.201000000     6.475000000
H     4.153000000     4.658000000     6.959000000
C     2.690000000     4.816000000     5.388000000
H     3.080000000     5.745000000     4.978000000
C     1.452000000     4.302000000     4.851000000
C     0.819000000     3.211000000     5.423000000
H    -0.173000000     2.991000000     5.036000000
C    -0.844000000     0.605000000     1.874000000
H    -1.106000000     0.277000000     2.877000000
C    -0.233000000    -0.324000000     1.075000000
H     0.042000000    -1.312000000     1.434000000
C     0.092000000     0.017000000    -0.229000000
H     0.615000000    -0.782000000    -0.833000000
C    -0.267000000     1.255000000    -0.725000000
H    -0.088000000     1.553000000    -1.755000000
C    -0.978000000     2.154000000     0.065000000
H    -1.231000000     3.137000000    -0.323000000
C    -1.124000000     1.861000000     1.432000000
C    -1.742000000     2.944000000     2.338000000
O    -2.114000000     3.977000000     1.791000000
O    -1.946000000     2.710000000     3.531000000
O    -7.069000000     4.897000000     1.925000000
H    -6.502000000     4.192000000     2.239000000
H    -7.915000000     4.475000000     1.777000000
O    -5.761000000     6.496000000    -0.120000000
H    -4.851000000     6.633000000     0.141000000
H    -6.090000000     5.837000000     0.491000000
O    -1.479000000     3.052000000     8.326000000
H    -1.221000000     3.954000000     8.136000000
H    -1.813000000     2.718000000     7.493000000
O    -0.034000000     7.521000000     5.836000000
H     0.526000000     8.165000000     5.403000000
H    -0.585000000     7.173000000     5.136000000
O    -2.045000000     5.368000000     4.462000000
H    -1.766000000     4.612000000     3.945000000
H    -2.658000000     5.008000000     5.102000000
O    -2.952000000     1.965000000     5.862000000
H    -3.300000000     2.849000000     5.982000000
H    -2.592000000     1.968000000     4.975000000
O    -3.389000000     6.270000000     1.115000000
H    -3.037000000     6.844000000     1.795000000
H    -3.147000000     5.388000000     1.396000000
O    -3.302000000     0.392000000    -0.523000000
H    -3.390000000    -0.552000000    -0.386000000
H    -2.363000000     0.529000000    -0.645000000
O    -1.251000000     5.529000000     7.426000000
H    -0.738000000     6.209000000     6.988000000
H    -1.046000000     5.635000000     8.355000000
O    -6.602000000     2.518000000    -1.515000000
H    -5.648000000     2.482000000    -1.445000000
H    -6.767000000     3.130000000    -2.232000000
O    -3.090000000     7.652000000     3.685000000
H    -2.625000000     6.841000000     3.894000000
H    -4.011000000     7.396000000     3.643000000
O    -4.769000000    -0.208000000     5.140000000
H    -5.528000000     0.158000000     4.687000000
H    -4.238000000     0.554000000     5.371000000
O    -6.606000000     6.538000000     4.215000000
H    -6.784000000     5.862000000     3.561000000
H    -7.103000000     6.263000000     4.985000000
O    -4.379000000     3.245000000    -0.072000000
H    -3.879000000     3.777000000     0.547000000
H    -3.950000000     2.390000000    -0.053000000
O    -4.102000000     4.582000000     5.810000000
H    -3.877000000     5.144000000     6.552000000
H    -4.942000000     4.191000000     6.051000000
O    -6.454000000     2.015000000     1.624000000
H    -5.924000000     2.259000000     0.865000000
H    -5.876000000     2.157000000     2.374000000
O    -1.076000000     9.362000000     0.252000000
H    -0.993000000     8.431000000     0.045000000
H    -1.607000000     9.720000000    -0.459000000
O    -4.992000000     3.579000000     3.341000000
H    -4.900000000     4.065000000     4.160000000
H    -4.102000000     3.303000000     3.124000000
O    -6.396000000     3.410000000     5.825000000
H    -6.607000000     2.905000000     5.039000000
H    -7.246000000     3.627000000     6.206000000
