215
-1467.11173
C    -2.492000000    -0.825000000    -3.431000000
H    -1.966000000    -1.723000000    -3.114000000
C    -1.790000000     0.258000000    -3.964000000
C    -2.519000000     1.397000000    -4.386000000
H    -1.981000000     2.229000000    -4.833000000
C    -0.260000000     0.117000000    -3.976000000
O     0.209000000    -1.113000000    -4.526000000
H     0.057000000     0.113000000    -2.923000000
O     0.440000000     1.093000000    -4.665000000
C     1.486000000     1.684000000    -4.115000000
C     1.190000000     2.793000000    -3.398000000
H     0.182000000     3.183000000    -3.282000000
C     2.171000000     3.437000000    -2.638000000
O     1.733000000     4.467000000    -1.840000000
C     3.476000000     2.947000000    -2.520000000
C     4.457000000     3.487000000    -1.407000000
H     5.491000000     3.259000000    -1.670000000
C     4.149000000     2.884000000     0.005000000
C     4.813000000     1.711000000     0.457000000
H     5.598000000     1.196000000    -0.091000000
H     4.382000000     4.563000000    -1.235000000
C     3.773000000     1.810000000    -3.218000000
H     4.793000000     1.481000000    -3.040000000
C     2.775000000     1.146000000    -4.019000000
C     3.053000000    -0.166000000    -4.674000000
H     4.105000000    -0.145000000    -4.967000000
H     2.431000000    -0.142000000    -5.571000000
C     2.523000000    -1.334000000    -3.842000000
C     3.475000000    -1.958000000    -3.049000000
H     4.489000000    -1.567000000    -3.011000000
C     1.217000000    -1.782000000    -3.824000000
C     0.898000000    -2.943000000    -3.088000000
H    -0.126000000    -3.297000000    -3.169000000
C     1.841000000    -3.517000000    -2.259000000
O     1.446000000    -4.523000000    -1.478000000
C     0.967000000    -4.237000000    -0.153000000
C    -0.291000000    -5.000000000     0.192000000
C    -0.621000000    -5.228000000     1.571000000
H     0.215000000    -5.033000000     2.238000000
C    -1.331000000    -5.166000000    -0.696000000
H    -1.239000000    -4.973000000    -1.762000000
O     2.082000000    -4.585000000     0.720000000
H     0.874000000    -3.141000000    -0.135000000
C     3.165000000    -3.039000000    -2.245000000
C     4.179000000    -3.598000000    -1.274000000
H     5.235000000    -3.524000000    -1.541000000
H     4.052000000    -4.681000000    -1.215000000
C     3.928000000    -3.060000000     0.132000000
C     4.653000000    -1.991000000     0.552000000
H     5.359000000    -1.546000000    -0.144000000
C     2.943000000    -3.545000000     1.052000000
C     2.677000000    -2.936000000     2.275000000
H     1.904000000    -3.308000000     2.942000000
C     3.435000000    -1.856000000     2.625000000
O     3.115000000    -1.258000000     3.775000000
C     2.227000000    -0.122000000     3.670000000
C     1.085000000    -0.144000000     4.699000000
C     0.395000000    -1.400000000     4.915000000
H     0.859000000    -2.304000000     4.528000000
C     0.472000000     1.059000000     5.018000000
H     1.013000000     1.930000000     4.656000000
O     3.020000000     1.150000000     3.651000000
H     1.706000000    -0.174000000     2.702000000
C     4.480000000    -1.391000000     1.797000000
C     5.217000000    -0.068000000     2.157000000
H     6.274000000    -0.160000000     1.898000000
H     5.270000000    -0.015000000     3.246000000
C     4.521000000     1.105000000     1.704000000
C     3.465000000     1.731000000     2.435000000
C     2.790000000     2.872000000     2.007000000
H     2.019000000     3.348000000     2.607000000
C     3.134000000     3.443000000     0.798000000
O     2.239000000     4.507000000     0.392000000
C     1.152000000     4.121000000    -0.553000000
H     0.908000000     3.049000000    -0.505000000
C    -0.120000000     4.796000000    -0.235000000
C    -0.964000000     5.266000000    -1.268000000
H    -0.709000000     5.069000000    -2.307000000
C    -0.535000000     5.020000000     1.103000000
H     0.087000000     4.614000000     1.897000000
C    -1.792000000     5.566000000     1.392000000
O    -2.235000000     5.657000000     2.706000000
C    -2.533000000     6.069000000     0.337000000
H    -3.513000000     6.475000000     0.573000000
C    -2.153000000     5.911000000    -1.023000000
O    -3.008000000     6.310000000    -1.977000000
C    -3.262000000     5.633000000    -3.160000000
C    -3.778000000     4.365000000    -3.257000000
H    -3.847000000     3.764000000    -2.354000000
C    -3.091000000     6.466000000    -4.328000000
H    -2.816000000     7.508000000    -4.190000000
C    -3.449000000     5.944000000    -5.554000000
H    -3.204000000     6.528000000    -6.437000000
C    -3.948000000     4.610000000    -5.653000000
H    -4.156000000     4.106000000    -6.594000000
C    -4.100000000     3.819000000    -4.519000000
O    -4.584000000     2.561000000    -4.656000000
C    -3.934000000     1.443000000    -4.309000000
C    -4.640000000     0.353000000    -3.803000000
H    -5.726000000     0.360000000    -3.756000000
C    -3.935000000    -0.744000000    -3.290000000
O    -4.713000000    -1.814000000    -2.826000000
C    -4.345000000    -3.190000000    -3.008000000
C    -4.020000000    -3.960000000    -1.985000000
H    -3.971000000    -3.547000000    -0.980000000
C    -4.337000000    -3.687000000    -4.315000000
H    -4.450000000    -3.010000000    -5.158000000
C    -4.217000000    -5.111000000    -4.529000000
H    -4.223000000    -5.572000000    -5.514000000
C    -3.930000000    -5.967000000    -3.449000000
H    -3.773000000    -7.032000000    -3.595000000
C    -3.785000000    -5.343000000    -2.186000000
O    -3.508000000    -6.220000000    -1.157000000
C    -2.508000000    -5.900000000    -0.310000000
C    -2.720000000    -6.214000000     1.037000000
H    -3.636000000    -6.720000000     1.332000000
C    -1.772000000    -5.868000000     1.985000000
O    -1.820000000    -6.441000000     3.227000000
C    -1.488000000    -5.755000000     4.381000000
C    -1.815000000    -4.444000000     4.487000000
H    -2.276000000    -3.895000000     3.670000000
C    -0.948000000    -6.448000000     5.469000000
H    -0.587000000    -7.471000000     5.411000000
C    -0.646000000    -5.746000000     6.650000000
H    -0.096000000    -6.208000000     7.466000000
C    -0.885000000    -4.393000000     6.737000000
H    -0.813000000    -3.871000000     7.688000000
C    -1.459000000    -3.745000000     5.618000000
O    -1.711000000    -2.406000000     5.753000000
C    -0.886000000    -1.329000000     5.483000000
C    -1.444000000    -0.077000000     5.893000000
H    -2.479000000    -0.007000000     6.217000000
C    -0.758000000     1.078000000     5.674000000
O    -1.279000000     2.291000000     5.926000000
C    -0.966000000     3.557000000     5.392000000
C     0.060000000     4.356000000     5.938000000
H     0.685000000     4.041000000     6.769000000
C     0.296000000     5.580000000     5.309000000
H     1.180000000     6.147000000     5.592000000
C    -0.560000000     6.085000000     4.367000000
H    -0.343000000     7.020000000     3.856000000
C    -1.603000000     5.266000000     3.896000000
C    -1.833000000     4.050000000     4.419000000
H    -2.686000000     3.468000000     4.080000000
C    -1.657000000    -1.244000000     0.506000000
H    -2.246000000    -2.115000000     0.229000000
C    -0.510000000    -0.900000000    -0.166000000
H    -0.207000000    -1.330000000    -1.117000000
C     0.231000000     0.180000000     0.299000000
H     1.095000000     0.575000000    -0.258000000
C    -0.140000000     0.851000000     1.456000000
H     0.451000000     1.681000000     1.833000000
C    -1.255000000     0.461000000     2.195000000
H    -1.636000000     1.047000000     3.027000000
C    -2.043000000    -0.614000000     1.740000000
C    -3.337000000    -1.048000000     2.450000000
O    -3.801000000    -0.345000000     3.303000000
O    -3.883000000    -2.131000000     2.226000000
O    -9.006000000    -3.706000000     0.975000000
H    -9.623000000    -4.432000000     0.876000000
H    -9.239000000    -3.306000000     1.813000000
O    -4.629000000     1.809000000     0.682000000
H    -5.227000000     2.055000000    -0.024000000
H    -3.841000000     1.504000000     0.233000000
O    -2.500000000     1.606000000    -1.017000000
H    -1.705000000     1.088000000    -0.889000000
H    -2.831000000     1.330000000    -1.872000000
O    -4.525000000    -1.769000000     5.653000000
H    -3.653000000    -2.053000000     5.929000000
H    -4.390000000    -1.396000000     4.782000000
O    -6.521000000     0.626000000     7.286000000
H    -6.495000000     1.456000000     6.809000000
H    -7.052000000     0.050000000     6.735000000
O    -8.037000000    -3.501000000     4.031000000
H    -7.886000000    -2.743000000     4.597000000
H    -7.247000000    -3.561000000     3.495000000
O    -7.195000000    -1.290000000     5.316000000
H    -7.310000000    -0.945000000     4.430000000
H    -6.255000000    -1.454000000     5.389000000
O    -6.408000000    -0.602000000     1.240000000
H    -6.020000000    -1.419000000     1.554000000
H    -5.718000000     0.051000000     1.356000000
O    -6.355000000    -5.450000000     0.090000000
H    -6.183000000    -6.334000000    -0.234000000
H    -6.528000000    -4.935000000    -0.698000000
O    -7.145000000    -3.204000000    -1.269000000
H    -7.557000000    -3.538000000    -0.472000000
H    -6.571000000    -2.501000000    -0.965000000
O    -5.120000000     1.962000000     3.670000000
H    -4.666000000     1.124000000     3.758000000
H    -4.901000000     2.261000000     2.787000000
O    -5.997000000    -3.328000000     7.189000000
H    -5.917000000    -2.923000000     8.053000000
H    -5.683000000    -2.660000000     6.581000000
O    -4.159000000     1.556000000     8.757000000
H    -3.534000000     0.839000000     8.645000000
H    -4.912000000     1.303000000     8.223000000
O    -8.804000000     0.867000000    -0.667000000
H    -8.384000000     0.179000000    -0.151000000
H    -9.531000000     0.427000000    -1.107000000
O    -7.190000000     2.814000000    -1.436000000
H    -7.648000000     2.167000000    -0.898000000
H    -7.802000000     3.546000000    -1.503000000
O    -5.756000000    -3.939000000     2.641000000
H    -4.951000000    -3.452000000     2.470000000
H    -6.086000000    -4.169000000     1.772000000
O    -6.419000000    -5.752000000     6.204000000
H    -6.620000000    -5.524000000     5.296000000
H    -6.515000000    -4.930000000     6.684000000
O    -6.090000000     3.031000000     5.920000000
H    -6.012000000     2.572000000     5.084000000
H    -5.623000000     3.856000000     5.785000000
O    -8.583000000    -0.055000000     3.233000000
H    -9.079000000     0.751000000     3.373000000
H    -8.207000000     0.044000000     2.359000000
