215
-1441.08571
C    -1.835000000    -1.042000000    -4.973000000
H    -1.418000000    -2.045000000    -5.011000000
C    -1.031000000     0.122000000    -4.774000000
C    -1.755000000     1.349000000    -4.890000000
H    -1.226000000     2.298000000    -4.920000000
C     0.415000000     0.071000000    -4.342000000
O     1.050000000    -1.104000000    -4.851000000
H     0.331000000     0.021000000    -3.246000000
O     1.110000000     1.299000000    -4.668000000
C     1.975000000     1.752000000    -3.755000000
C     1.562000000     2.922000000    -3.079000000
H     0.562000000     3.294000000    -3.291000000
C     2.345000000     3.408000000    -2.013000000
O     1.826000000     4.437000000    -1.271000000
C     3.586000000     2.846000000    -1.681000000
C     4.477000000     3.364000000    -0.522000000
H     5.520000000     3.102000000    -0.709000000
C     3.974000000     2.640000000     0.705000000
C     4.548000000     1.451000000     1.115000000
H     5.281000000     0.929000000     0.506000000
H     4.373000000     4.444000000    -0.398000000
C     3.993000000     1.752000000    -2.444000000
H     4.953000000     1.306000000    -2.198000000
C     3.230000000     1.188000000    -3.449000000
C     3.776000000    -0.033000000    -4.214000000
H     4.842000000    -0.173000000    -4.025000000
H     3.521000000     0.093000000    -5.268000000
C     3.153000000    -1.271000000    -3.592000000
C     3.840000000    -1.953000000    -2.539000000
H     4.693000000    -1.442000000    -2.100000000
C     1.905000000    -1.784000000    -4.021000000
C     1.445000000    -2.901000000    -3.311000000
H     0.420000000    -3.197000000    -3.520000000
C     2.097000000    -3.476000000    -2.259000000
O     1.521000000    -4.587000000    -1.683000000
C     0.918000000    -4.423000000    -0.353000000
C    -0.492000000    -4.998000000    -0.188000000
C    -1.025000000    -5.256000000     1.069000000
H    -0.425000000    -5.074000000     1.957000000
C    -1.326000000    -5.060000000    -1.314000000
H    -0.912000000    -4.853000000    -2.297000000
O     1.825000000    -4.820000000     0.696000000
H     0.741000000    -3.356000000    -0.156000000
C     3.365000000    -3.083000000    -1.905000000
C     4.179000000    -3.837000000    -0.805000000
H     5.250000000    -3.696000000    -0.964000000
H     4.065000000    -4.923000000    -0.812000000
C     3.729000000    -3.288000000     0.526000000
C     4.385000000    -2.229000000     1.110000000
H     5.227000000    -1.941000000     0.485000000
C     2.669000000    -3.843000000     1.244000000
C     2.307000000    -3.312000000     2.442000000
H     1.398000000    -3.665000000     2.923000000
C     2.889000000    -2.170000000     2.923000000
O     2.335000000    -1.505000000     4.024000000
C     1.774000000    -0.142000000     3.829000000
C     0.426000000     0.086000000     4.476000000
C    -0.542000000    -0.906000000     4.251000000
H    -0.336000000    -1.776000000     3.634000000
C     0.155000000     1.203000000     5.220000000
H     0.879000000     1.960000000     5.509000000
O     2.759000000     0.872000000     4.247000000
H     1.618000000    -0.149000000     2.740000000
C     3.992000000    -1.628000000     2.269000000
C     4.757000000    -0.412000000     2.828000000
H     5.767000000    -0.481000000     2.417000000
H     5.034000000    -0.348000000     3.882000000
C     4.149000000     0.898000000     2.328000000
C     3.144000000     1.556000000     3.098000000
C     2.499000000     2.670000000     2.648000000
H     1.616000000     3.041000000     3.162000000
C     3.020000000     3.307000000     1.494000000
O     2.348000000     4.354000000     1.033000000
C     1.329000000     4.077000000     0.018000000
H     1.156000000     2.996000000    -0.085000000
C    -0.016000000     4.626000000     0.404000000
C    -0.972000000     4.798000000    -0.618000000
H    -0.709000000     4.522000000    -1.636000000
C    -0.330000000     4.910000000     1.764000000
H     0.387000000     4.900000000     2.581000000
C    -1.622000000     5.352000000     2.034000000
O    -1.962000000     5.934000000     3.245000000
C    -2.501000000     5.583000000     1.008000000
H    -3.397000000     6.129000000     1.294000000
C    -2.258000000     5.220000000    -0.321000000
O    -3.306000000     5.439000000    -1.224000000
C    -3.030000000     5.197000000    -2.603000000
C    -3.323000000     3.966000000    -3.054000000
H    -3.654000000     3.117000000    -2.462000000
C    -2.628000000     6.223000000    -3.374000000
H    -2.402000000     7.184000000    -2.920000000
C    -2.416000000     6.030000000    -4.745000000
H    -1.910000000     6.742000000    -5.392000000
C    -2.816000000     4.776000000    -5.249000000
H    -2.575000000     4.650000000    -6.301000000
C    -3.373000000     3.775000000    -4.415000000
O    -3.838000000     2.589000000    -4.933000000
C    -3.139000000     1.409000000    -4.939000000
C    -3.860000000     0.217000000    -4.920000000
H    -4.940000000     0.231000000    -4.798000000
C    -3.244000000    -1.002000000    -5.004000000
O    -4.016000000    -2.167000000    -4.950000000
C    -3.536000000    -3.446000000    -4.785000000
C    -3.749000000    -4.168000000    -3.607000000
H    -4.300000000    -3.711000000    -2.789000000
C    -3.088000000    -4.102000000    -5.934000000
H    -3.092000000    -3.625000000    -6.911000000
C    -2.699000000    -5.442000000    -5.877000000
H    -2.421000000    -6.050000000    -6.734000000
C    -2.736000000    -6.117000000    -4.680000000
H    -2.315000000    -7.115000000    -4.584000000
C    -3.248000000    -5.488000000    -3.556000000
O    -3.183000000    -6.117000000    -2.322000000
C    -2.578000000    -5.650000000    -1.192000000
C    -3.119000000    -5.972000000     0.076000000
H    -4.149000000    -6.268000000     0.259000000
C    -2.342000000    -5.695000000     1.211000000
O    -2.933000000    -5.987000000     2.436000000
C    -2.820000000    -5.157000000     3.566000000
C    -3.050000000    -3.738000000     3.479000000
H    -3.286000000    -3.318000000     2.504000000
C    -2.378000000    -5.726000000     4.787000000
H    -2.145000000    -6.787000000     4.753000000
C    -2.189000000    -4.935000000     5.922000000
H    -1.756000000    -5.337000000     6.834000000
C    -2.426000000    -3.573000000     5.778000000
H    -2.190000000    -2.956000000     6.641000000
C    -2.829000000    -2.964000000     4.599000000
O    -2.959000000    -1.681000000     4.601000000
C    -1.871000000    -0.819000000     4.798000000
C    -2.098000000     0.304000000     5.603000000
H    -2.988000000     0.555000000     6.174000000
C    -1.167000000     1.328000000     5.729000000
O    -1.514000000     2.411000000     6.490000000
C    -1.277000000     3.744000000     6.117000000
C    -0.714000000     4.614000000     7.013000000
H    -0.598000000     4.285000000     8.043000000
C    -0.545000000     5.934000000     6.677000000
H    -0.219000000     6.577000000     7.491000000
C    -0.972000000     6.352000000     5.414000000
H    -0.999000000     7.409000000     5.162000000
C    -1.485000000     5.479000000     4.445000000
C    -1.615000000     4.131000000     4.824000000
H    -2.272000000     3.547000000     4.185000000
C    -1.704000000    -1.398000000    -0.279000000
H    -2.142000000    -2.302000000    -0.695000000
C    -0.322000000    -1.069000000    -0.425000000
H     0.405000000    -1.602000000    -1.031000000
C     0.128000000     0.090000000     0.234000000
H     1.133000000     0.445000000     0.244000000
C    -0.719000000     0.746000000     1.092000000
H    -0.335000000     1.489000000     1.786000000
C    -2.053000000     0.392000000     1.217000000
H    -2.710000000     0.958000000     1.873000000
C    -2.568000000    -0.693000000     0.520000000
C    -4.041000000    -0.851000000     0.597000000
O    -4.653000000    -0.010000000     1.167000000
O    -4.624000000    -1.846000000     0.238000000
O    -6.390000000    -5.638000000     1.923000000
H    -6.101000000    -6.488000000     1.592000000
H    -6.227000000    -5.679000000     2.865000000
O    -5.671000000     4.486000000     0.735000000
H    -5.567000000     5.132000000     0.036000000
H    -5.554000000     4.987000000     1.542000000
O    -7.087000000    -2.219000000    -2.732000000
H    -7.196000000    -1.374000000    -2.294000000
H    -6.300000000    -2.594000000    -2.336000000
O    -9.234000000    -3.500000000    -1.041000000
H    -8.423000000    -3.297000000    -1.508000000
H    -9.561000000    -2.649000000    -0.749000000
O    -8.791000000     2.278000000     1.637000000
H    -8.832000000     1.733000000     0.851000000
H    -7.976000000     2.019000000     2.066000000
O    -4.906000000     2.088000000    -0.642000000
H    -5.216000000     2.930000000    -0.309000000
H    -4.632000000     1.608000000     0.139000000
O    -5.465000000    -1.023000000     3.440000000
H    -5.095000000    -0.666000000     2.632000000
H    -4.720000000    -1.085000000     4.038000000
O    -5.506000000    -5.435000000     4.814000000
H    -5.766000000    -5.634000000     5.714000000
H    -4.569000000    -5.247000000     4.872000000
O    -7.037000000    -2.802000000     4.850000000
H    -6.262000000    -3.312000000     4.616000000
H    -7.098000000    -2.132000000     4.169000000
O    -6.258000000     0.027000000    -1.287000000
H    -5.747000000     0.829000000    -1.389000000
H    -5.862000000    -0.416000000    -0.536000000
O    -7.453000000    -6.334000000    -1.625000000
H    -7.013000000    -5.597000000    -1.200000000
H    -7.584000000    -6.046000000    -2.528000000
O    -5.720000000     1.805000000     2.722000000
H    -5.440000000     1.213000000     2.024000000
H    -5.471000000     2.676000000     2.413000000
O    -9.282000000    -1.866000000    -4.193000000
H    -9.945000000    -2.557000000    -4.199000000
H    -8.500000000    -2.288000000    -3.838000000
O    -7.117000000     3.097000000    -3.153000000
H    -7.008000000     3.166000000    -2.205000000
H    -7.422000000     2.201000000    -3.295000000
O    -8.905000000     0.566000000    -0.651000000
H    -8.088000000     0.203000000    -0.993000000
H    -9.480000000    -0.192000000    -0.547000000
O    -6.224000000    -3.805000000    -0.029000000
H    -5.585000000    -3.134000000     0.211000000
H    -6.227000000    -4.410000000     0.714000000
O    -8.529000000    -0.506000000     3.563000000
H    -7.696000000    -0.752000000     3.966000000
H    -8.326000000    -0.414000000     2.632000000
O    -6.508000000     2.563000000     5.429000000
H    -6.619000000     3.508000000     5.327000000
H    -6.244000000     2.257000000     4.561000000
O    -7.469000000    -1.564000000     1.184000000
H    -7.693000000    -2.267000000     0.574000000
H    -6.534000000    -1.414000000     1.044000000
