215
-1454.54035
C    -1.727000000    -0.440000000    -4.446000000
H    -1.238000000    -1.403000000    -4.321000000
C    -0.914000000     0.680000000    -4.456000000
C    -1.517000000     1.881000000    -4.708000000
H    -0.771000000     2.669000000    -4.754000000
C     0.566000000     0.567000000    -4.118000000
O     1.079000000    -0.586000000    -4.667000000
H     0.718000000     0.492000000    -3.031000000
O     1.354000000     1.741000000    -4.567000000
C     2.054000000     2.311000000    -3.565000000
C     1.593000000     3.370000000    -2.832000000
H     0.644000000     3.861000000    -3.032000000
C     2.324000000     3.707000000    -1.676000000
O     1.740000000     4.574000000    -0.841000000
C     3.575000000     3.131000000    -1.375000000
C     4.349000000     3.563000000    -0.117000000
H     5.425000000     3.383000000    -0.160000000
C     3.932000000     2.801000000     1.176000000
C     4.599000000     1.599000000     1.491000000
H     5.432000000     1.310000000     0.856000000
H     4.220000000     4.641000000    -0.005000000
C     4.022000000     2.086000000    -2.142000000
H     4.961000000     1.628000000    -1.841000000
C     3.254000000     1.638000000    -3.224000000
C     3.781000000     0.449000000    -3.986000000
H     4.869000000     0.519000000    -4.048000000
H     3.543000000     0.521000000    -5.050000000
C     3.211000000    -0.847000000    -3.499000000
C     3.960000000    -1.677000000    -2.595000000
H     4.921000000    -1.261000000    -2.304000000
C     2.031000000    -1.375000000    -3.955000000
C     1.593000000    -2.577000000    -3.418000000
H     0.663000000    -3.016000000    -3.768000000
C     2.279000000    -3.257000000    -2.492000000
O     1.634000000    -4.323000000    -1.968000000
C     1.013000000    -4.066000000    -0.696000000
C    -0.358000000    -4.740000000    -0.634000000
C    -0.887000000    -5.030000000     0.653000000
H    -0.248000000    -4.922000000     1.525000000
C    -1.132000000    -5.065000000    -1.810000000
H    -0.869000000    -4.809000000    -2.833000000
O     1.839000000    -4.687000000     0.276000000
H     0.896000000    -2.985000000    -0.533000000
C     3.503000000    -2.872000000    -2.079000000
C     4.205000000    -3.625000000    -0.962000000
H     5.285000000    -3.574000000    -1.116000000
H     3.958000000    -4.676000000    -1.127000000
C     3.765000000    -3.179000000     0.435000000
C     4.431000000    -2.183000000     1.054000000
H     5.279000000    -1.765000000     0.517000000
C     2.666000000    -3.741000000     1.000000000
C     2.277000000    -3.349000000     2.303000000
H     1.306000000    -3.679000000     2.663000000
C     2.875000000    -2.312000000     2.953000000
O     2.275000000    -1.867000000     4.061000000
C     1.509000000    -0.691000000     3.873000000
C     0.165000000    -0.707000000     4.569000000
C    -0.553000000    -1.909000000     4.800000000
H    -0.215000000    -2.881000000     4.452000000
C    -0.434000000     0.467000000     5.048000000
H     0.162000000     1.375000000     5.105000000
O     2.372000000     0.447000000     4.238000000
H     1.486000000    -0.459000000     2.798000000
C     4.030000000    -1.718000000     2.361000000
C     4.758000000    -0.524000000     2.870000000
H     5.701000000    -0.468000000     2.321000000
H     4.957000000    -0.600000000     3.941000000
C     4.109000000     0.839000000     2.587000000
C     2.989000000     1.215000000     3.269000000
C     2.341000000     2.397000000     2.986000000
H     1.446000000     2.716000000     3.513000000
C     2.758000000     3.139000000     1.872000000
O     1.842000000     4.126000000     1.499000000
C     1.018000000     3.952000000     0.309000000
H     0.887000000     2.879000000     0.103000000
C    -0.376000000     4.583000000     0.519000000
C    -1.120000000     5.210000000    -0.507000000
H    -0.644000000     5.152000000    -1.483000000
C    -0.928000000     4.531000000     1.766000000
H    -0.352000000     4.069000000     2.563000000
C    -2.161000000     5.117000000     2.048000000
O    -2.837000000     5.127000000     3.282000000
C    -2.842000000     5.728000000     0.987000000
H    -3.870000000     6.021000000     1.180000000
C    -2.388000000     5.739000000    -0.321000000
O    -3.169000000     6.239000000    -1.258000000
C    -3.163000000     5.936000000    -2.602000000
C    -3.125000000     4.689000000    -3.084000000
H    -3.026000000     3.886000000    -2.359000000
C    -3.158000000     7.035000000    -3.387000000
H    -3.050000000     8.043000000    -2.993000000
C    -3.258000000     6.900000000    -4.788000000
H    -3.391000000     7.784000000    -5.406000000
C    -3.351000000     5.595000000    -5.307000000
H    -3.469000000     5.473000000    -6.381000000
C    -3.316000000     4.473000000    -4.464000000
O    -3.409000000     3.231000000    -5.125000000
C    -2.867000000     2.039000000    -4.707000000
C    -3.666000000     0.941000000    -4.634000000
H    -4.720000000     1.027000000    -4.884000000
C    -3.117000000    -0.344000000    -4.497000000
O    -3.971000000    -1.495000000    -4.411000000
C    -3.371000000    -2.695000000    -4.598000000
C    -3.575000000    -3.668000000    -3.638000000
H    -4.221000000    -3.460000000    -2.789000000
C    -2.825000000    -3.134000000    -5.830000000
H    -2.669000000    -2.416000000    -6.631000000
C    -2.387000000    -4.468000000    -6.019000000
H    -1.893000000    -4.702000000    -6.959000000
C    -2.477000000    -5.387000000    -5.005000000
H    -1.959000000    -6.340000000    -5.069000000
C    -3.135000000    -5.005000000    -3.790000000
O    -3.162000000    -5.828000000    -2.708000000
C    -2.382000000    -5.704000000    -1.627000000
C    -2.864000000    -5.950000000    -0.374000000
H    -3.808000000    -6.472000000    -0.235000000
C    -2.124000000    -5.794000000     0.761000000
O    -2.410000000    -6.395000000     1.925000000
C    -2.086000000    -5.997000000     3.196000000
C    -2.425000000    -4.675000000     3.639000000
H    -2.783000000    -3.989000000     2.877000000
C    -1.472000000    -6.858000000     4.121000000
H    -1.356000000    -7.916000000     3.901000000
C    -1.180000000    -6.416000000     5.448000000
H    -0.724000000    -7.091000000     6.169000000
C    -1.488000000    -5.109000000     5.846000000
H    -1.368000000    -4.818000000     6.886000000
C    -2.179000000    -4.279000000     4.946000000
O    -2.670000000    -3.039000000     5.370000000
C    -1.882000000    -1.913000000     5.357000000
C    -2.418000000    -0.702000000     5.769000000
H    -3.324000000    -0.728000000     6.369000000
C    -1.669000000     0.470000000     5.680000000
O    -2.139000000     1.590000000     6.331000000
C    -1.836000000     2.879000000     5.945000000
C    -1.020000000     3.705000000     6.663000000
H    -0.460000000     3.314000000     7.508000000
C    -0.751000000     4.988000000     6.198000000
H     0.007000000     5.583000000     6.702000000
C    -1.292000000     5.509000000     5.032000000
H    -1.124000000     6.534000000     4.714000000
C    -2.229000000     4.710000000     4.367000000
C    -2.497000000     3.389000000     4.759000000
H    -3.219000000     2.722000000     4.296000000
C    -1.697000000    -1.555000000    -0.260000000
H    -2.276000000    -2.313000000    -0.782000000
C    -0.515000000    -1.046000000    -0.774000000
H    -0.059000000    -1.473000000    -1.663000000
C     0.029000000     0.048000000    -0.197000000
H     1.008000000     0.457000000    -0.569000000
C    -0.415000000     0.487000000     1.031000000
H     0.154000000     1.280000000     1.508000000
C    -1.550000000    -0.054000000     1.606000000
H    -1.907000000     0.439000000     2.507000000
C    -2.194000000    -1.116000000     0.982000000
C    -3.524000000    -1.590000000     1.491000000
O    -4.019000000    -1.044000000     2.434000000
O    -4.106000000    -2.569000000     0.957000000
O    -5.557000000    -4.943000000     4.831000000
H    -4.813000000    -5.413000000     5.208000000
H    -6.325000000    -5.419000000     5.147000000
O    -5.504000000     2.872000000     1.962000000
H    -6.339000000     2.803000000     2.426000000
H    -5.252000000     3.791000000     2.058000000
O    -8.542000000    -2.264000000    -1.559000000
H    -7.635000000    -2.468000000    -1.331000000
H    -8.881000000    -3.074000000    -1.940000000
O    -4.320000000    -4.591000000     7.882000000
H    -5.230000000    -4.321000000     8.006000000
H    -3.987000000    -4.005000000     7.203000000
O    -8.145000000    -3.888000000     1.666000000
H    -7.387000000    -4.468000000     1.747000000
H    -7.766000000    -3.022000000     1.511000000
O    -5.591000000    -0.960000000     6.951000000
H    -5.361000000    -1.433000000     6.151000000
H    -5.795000000    -0.073000000     6.654000000
O    -9.822000000    -0.427000000     3.181000000
H    -9.323000000    -0.707000000     3.947000000
H    -9.599000000    -1.065000000     2.503000000
O    -4.030000000     1.563000000    -0.271000000
H    -3.097000000     1.364000000    -0.349000000
H    -4.081000000     2.189000000     0.452000000
O    -5.334000000    -2.179000000     4.426000000
H    -4.802000000    -1.929000000     3.670000000
H    -5.036000000    -3.061000000     4.647000000
O    -6.637000000    -7.573000000     2.598000000
H    -5.870000000    -7.002000000     2.555000000
H    -6.622000000    -7.928000000     3.487000000
O    -5.932000000    -2.116000000    -0.738000000
H    -5.200000000    -2.285000000    -0.145000000
H    -6.205000000    -1.222000000    -0.532000000
O    -6.359000000    -5.490000000    -1.097000000
H    -5.858000000    -5.202000000    -0.333000000
H    -7.175000000    -4.991000000    -1.050000000
O    -6.856000000    -0.965000000     2.179000000
H    -6.987000000    -0.313000000     1.489000000
H    -5.908000000    -1.091000000     2.212000000
O    -4.809000000     0.870000000     3.970000000
H    -5.259000000     1.163000000     3.178000000
H    -4.184000000     0.214000000     3.661000000
O    -8.553000000    -3.764000000     4.532000000
H    -7.825000000    -4.376000000     4.639000000
H    -8.963000000    -4.023000000     3.707000000
O    -5.708000000     2.151000000     6.604000000
H    -6.606000000     1.834000000     6.703000000
H    -5.395000000     1.735000000     5.801000000
O    -6.787000000     0.698000000    -0.338000000
H    -5.935000000     1.134000000    -0.369000000
H    -7.348000000     1.305000000     0.146000000
O    -5.507000000    -4.823000000     1.722000000
H    -4.929000000    -4.115000000     1.438000000
H    -5.742000000    -4.594000000     2.621000000
O    -7.888000000    -1.167000000     4.850000000
H    -7.062000000    -1.001000000     4.395000000
H    -8.102000000    -2.074000000     4.634000000
