215
-1447.51472
C    -2.983000000     0.824000000    -4.724000000
H    -2.971000000    -0.166000000    -5.173000000
C    -1.813000000     1.411000000    -4.280000000
C    -1.948000000     2.633000000    -3.562000000
H    -1.020000000     3.055000000    -3.183000000
C    -0.447000000     0.708000000    -4.248000000
O    -0.507000000    -0.497000000    -4.967000000
H    -0.241000000     0.530000000    -3.182000000
O     0.652000000     1.575000000    -4.733000000
C     1.831000000     1.574000000    -4.080000000
C     2.209000000     2.703000000    -3.277000000
H     1.556000000     3.567000000    -3.180000000
C     3.325000000     2.620000000    -2.401000000
O     3.450000000     3.601000000    -1.434000000
C     4.146000000     1.478000000    -2.417000000
C     5.276000000     1.352000000    -1.402000000
H     6.119000000     0.822000000    -1.849000000
C     4.747000000     0.707000000    -0.126000000
C     4.973000000    -0.638000000     0.108000000
H     5.186000000    -1.312000000    -0.718000000
H     5.675000000     2.353000000    -1.224000000
C     3.823000000     0.474000000    -3.329000000
H     4.325000000    -0.490000000    -3.348000000
C     2.692000000     0.507000000    -4.141000000
C     2.351000000    -0.723000000    -4.945000000
H     3.285000000    -1.211000000    -5.231000000
H     1.860000000    -0.471000000    -5.888000000
C     1.398000000    -1.741000000    -4.254000000
C     1.912000000    -2.851000000    -3.554000000
H     2.977000000    -3.045000000    -3.455000000
C     0.006000000    -1.609000000    -4.307000000
C    -0.862000000    -2.423000000    -3.606000000
H    -1.904000000    -2.130000000    -3.511000000
C    -0.320000000    -3.511000000    -2.887000000
O    -1.248000000    -4.139000000    -2.011000000
C    -1.322000000    -3.844000000    -0.655000000
C    -2.749000000    -3.629000000    -0.096000000
C    -3.148000000    -4.251000000     1.037000000
H    -2.441000000    -4.884000000     1.566000000
C    -3.515000000    -2.662000000    -0.738000000
H    -3.269000000    -2.117000000    -1.646000000
O    -0.556000000    -4.900000000    -0.030000000
H    -0.762000000    -2.903000000    -0.548000000
C     1.078000000    -3.770000000    -2.881000000
C     1.568000000    -4.976000000    -2.165000000
H     2.495000000    -5.351000000    -2.603000000
H     0.842000000    -5.790000000    -2.221000000
C     1.809000000    -4.554000000    -0.683000000
C     3.044000000    -4.039000000    -0.340000000
H     3.815000000    -3.892000000    -1.093000000
C     0.738000000    -4.603000000     0.258000000
C     0.972000000    -4.185000000     1.526000000
H     0.164000000    -4.212000000     2.252000000
C     2.146000000    -3.572000000     1.802000000
O     2.280000000    -3.102000000     3.110000000
C     2.137000000    -1.695000000     3.197000000
C     1.087000000    -1.303000000     4.279000000
C     0.334000000    -2.310000000     4.967000000
H     0.650000000    -3.324000000     4.736000000
C     0.910000000    -0.011000000     4.658000000
H     1.445000000     0.757000000     4.105000000
O     3.371000000    -1.033000000     3.337000000
H     1.679000000    -1.395000000     2.242000000
C     3.235000000    -3.508000000     0.941000000
C     4.577000000    -2.865000000     1.372000000
H     5.371000000    -3.293000000     0.757000000
H     4.847000000    -3.155000000     2.390000000
C     4.517000000    -1.323000000     1.268000000
C     3.893000000    -0.490000000     2.199000000
C     3.787000000     0.913000000     2.063000000
H     3.473000000     1.484000000     2.933000000
C     4.198000000     1.511000000     0.868000000
O     4.034000000     2.882000000     0.693000000
C     2.927000000     3.257000000    -0.164000000
H     2.150000000     2.481000000    -0.228000000
C     2.174000000     4.432000000     0.462000000
C     1.290000000     5.259000000    -0.282000000
H     1.347000000     5.041000000    -1.346000000
C     2.168000000     4.534000000     1.813000000
H     2.673000000     3.716000000     2.319000000
C     1.460000000     5.519000000     2.465000000
O     1.414000000     5.596000000     3.864000000
C     0.682000000     6.405000000     1.703000000
H     0.098000000     7.194000000     2.170000000
C     0.650000000     6.339000000     0.304000000
O    -0.181000000     7.225000000    -0.501000000
C    -0.678000000     6.862000000    -1.726000000
C    -1.770000000     5.965000000    -1.759000000
H    -2.293000000     5.667000000    -0.854000000
C     0.029000000     7.183000000    -2.884000000
H     0.945000000     7.766000000    -2.921000000
C    -0.323000000     6.591000000    -4.085000000
H     0.100000000     6.900000000    -5.037000000
C    -1.455000000     5.760000000    -4.166000000
H    -1.764000000     5.333000000    -5.116000000
C    -2.171000000     5.469000000    -3.006000000
O    -3.216000000     4.545000000    -3.026000000
C    -3.161000000     3.286000000    -3.575000000
C    -4.316000000     2.764000000    -4.139000000
H    -5.217000000     3.319000000    -3.888000000
C    -4.250000000     1.475000000    -4.636000000
O    -5.433000000     0.836000000    -4.772000000
C    -5.735000000    -0.346000000    -4.079000000
C    -5.664000000    -0.246000000    -2.753000000
H    -5.277000000     0.644000000    -2.263000000
C    -5.975000000    -1.516000000    -4.756000000
H    -5.930000000    -1.524000000    -5.842000000
C    -6.229000000    -2.732000000    -4.017000000
H    -6.388000000    -3.621000000    -4.623000000
C    -5.969000000    -2.634000000    -2.635000000
H    -5.930000000    -3.557000000    -2.062000000
C    -5.648000000    -1.421000000    -2.066000000
O    -5.425000000    -1.295000000    -0.714000000
C    -4.697000000    -2.254000000    -0.109000000
C    -5.019000000    -2.814000000     1.099000000
H    -5.921000000    -2.433000000     1.571000000
C    -4.220000000    -3.815000000     1.677000000
O    -4.534000000    -4.200000000     2.952000000
C    -3.565000000    -4.554000000     3.896000000
C    -2.997000000    -3.506000000     4.689000000
H    -3.312000000    -2.474000000     4.565000000
C    -3.122000000    -5.861000000     4.018000000
H    -3.618000000    -6.599000000     3.393000000
C    -1.967000000    -6.162000000     4.739000000
H    -1.515000000    -7.149000000     4.691000000
C    -1.489000000    -5.164000000     5.628000000
H    -0.721000000    -5.465000000     6.336000000
C    -2.061000000    -3.873000000     5.626000000
O    -1.421000000    -2.939000000     6.518000000
C    -0.585000000    -1.978000000     5.977000000
C    -0.702000000    -0.612000000     6.320000000
H    -1.524000000    -0.391000000     6.996000000
C     0.016000000     0.359000000     5.628000000
O    -0.220000000     1.656000000     6.010000000
C     0.646000000     2.651000000     5.929000000
C     1.854000000     2.566000000     6.638000000
H     2.091000000     1.707000000     7.261000000
C     2.859000000     3.493000000     6.457000000
H     3.748000000     3.380000000     7.072000000
C     2.765000000     4.505000000     5.501000000
H     3.539000000     5.190000000     5.162000000
C     1.586000000     4.585000000     4.775000000
C     0.506000000     3.653000000     4.974000000
H    -0.414000000     3.867000000     4.437000000
C    -1.426000000     1.256000000     2.113000000
H    -1.821000000     1.049000000     3.105000000
C    -0.802000000     0.242000000     1.389000000
H    -0.708000000    -0.781000000     1.744000000
C    -0.275000000     0.540000000     0.110000000
H     0.149000000    -0.237000000    -0.509000000
C    -0.579000000     1.778000000    -0.367000000
H    -0.254000000     2.029000000    -1.373000000
C    -1.132000000     2.778000000     0.390000000
H    -1.230000000     3.745000000    -0.097000000
C    -1.586000000     2.574000000     1.690000000
C    -2.346000000     3.636000000     2.422000000
O    -2.941000000     4.537000000     1.777000000
O    -2.635000000     3.531000000     3.618000000
O    -7.492000000     6.373000000     1.845000000
H    -6.841000000     6.405000000     2.546000000
H    -7.443000000     5.477000000     1.513000000
O    -4.794000000     7.974000000    -1.035000000
H    -4.264000000     7.531000000    -0.372000000
H    -5.233000000     7.265000000    -1.504000000
O    -2.833000000     3.595000000     8.428000000
H    -2.528000000     4.456000000     8.142000000
H    -3.178000000     3.187000000     7.633000000
O    -2.257000000     5.755000000     4.948000000
H    -2.478000000     5.185000000     4.211000000
H    -2.497000000     5.248000000     5.723000000
O    -0.030000000     7.169000000     6.666000000
H    -0.280000000     6.439000000     6.100000000
H    -0.835000000     7.676000000     6.772000000
O    -7.543000000     3.662000000     1.373000000
H    -7.279000000     3.001000000     2.012000000
H    -7.080000000     3.419000000     0.571000000
O    -3.621000000     2.868000000     5.900000000
H    -4.486000000     3.252000000     5.758000000
H    -3.177000000     2.957000000     5.057000000
O    -4.514000000     0.393000000     4.672000000
H    -3.878000000     0.932000000     5.142000000
H    -4.976000000     1.009000000     4.104000000
O    -3.293000000     7.020000000     1.102000000
H    -2.441000000     7.356000000     1.378000000
H    -3.291000000     6.104000000     1.379000000
O    -3.605000000     0.813000000     0.379000000
H    -2.711000000     0.604000000     0.649000000
H    -3.989000000    -0.032000000     0.144000000
O    -2.657000000     6.169000000     7.634000000
H    -2.878000000     6.699000000     8.400000000
H    -3.366000000     6.338000000     7.013000000
O    -6.680000000     3.272000000    -1.263000000
H    -5.785000000     3.262000000    -0.926000000
H    -6.706000000     4.025000000    -1.853000000
O    -2.635000000     8.378000000     4.241000000
H    -2.426000000     7.470000000     4.462000000
H    -3.274000000     8.645000000     4.901000000
O    -4.186000000     0.485000000     7.583000000
H    -3.663000000     1.108000000     7.079000000
H    -3.547000000    -0.130000000     7.942000000
O    -4.164000000     3.343000000    -0.392000000
H    -3.737000000     3.803000000     0.331000000
H    -3.842000000     2.443000000    -0.326000000
O    -5.870000000     4.400000000     5.598000000
H    -5.311000000     4.943000000     5.042000000
H    -6.279000000     5.019000000     6.203000000
O    -5.157000000     2.068000000     2.464000000
H    -4.781000000     1.755000000     1.642000000
H    -4.548000000     2.742000000     2.766000000
O    -5.227000000     6.115000000     3.369000000
H    -4.811000000     6.973000000     3.280000000
H    -4.735000000     5.549000000     2.774000000
O    -4.122000000     9.655000000     1.682000000
H    -3.814000000     8.767000000     1.504000000
H    -5.059000000     9.555000000     1.850000000
