215
-1434.88581
C    -2.537000000     0.333000000    -4.827000000
H    -2.102000000    -0.550000000    -5.287000000
C    -1.765000000     1.317000000    -4.189000000
C    -2.382000000     2.423000000    -3.540000000
H    -1.788000000     3.197000000    -3.061000000
C    -0.234000000     1.233000000    -4.010000000
O     0.180000000     0.309000000    -4.921000000
H    -0.097000000     0.809000000    -3.004000000
O     0.535000000     2.454000000    -4.122000000
C     1.555000000     2.653000000    -3.236000000
C     1.299000000     3.454000000    -2.145000000
H     0.408000000     4.076000000    -2.118000000
C     2.297000000     3.697000000    -1.234000000
O     1.982000000     4.482000000    -0.169000000
C     3.561000000     3.079000000    -1.410000000
C     4.615000000     3.205000000    -0.370000000
H     5.572000000     2.936000000    -0.822000000
C     4.332000000     2.311000000     0.843000000
C     4.884000000     1.036000000     0.859000000
H     5.400000000     0.731000000    -0.048000000
H     4.630000000     4.213000000     0.050000000
C     3.802000000     2.228000000    -2.434000000
H     4.763000000     1.766000000    -2.645000000
C     2.783000000     1.926000000    -3.361000000
C     3.057000000     0.923000000    -4.447000000
H     4.133000000     0.790000000    -4.573000000
H     2.709000000     1.249000000    -5.430000000
C     2.428000000    -0.392000000    -4.160000000
C     3.212000000    -1.276000000    -3.470000000
H     4.257000000    -1.073000000    -3.251000000
C     1.060000000    -0.669000000    -4.491000000
C     0.501000000    -1.960000000    -4.210000000
H    -0.555000000    -2.140000000    -4.391000000
C     1.320000000    -2.889000000    -3.508000000
O     0.810000000    -4.024000000    -3.023000000
C     0.361000000    -3.945000000    -1.653000000
C    -1.125000000    -4.398000000    -1.445000000
C    -1.661000000    -4.357000000    -0.135000000
H    -1.039000000    -4.143000000     0.730000000
C    -2.005000000    -4.497000000    -2.513000000
H    -1.732000000    -4.355000000    -3.555000000
O     1.261000000    -4.684000000    -0.802000000
H     0.199000000    -2.900000000    -1.350000000
C     2.626000000    -2.485000000    -3.160000000
C     3.572000000    -3.424000000    -2.375000000
H     4.589000000    -3.175000000    -2.686000000
H     3.529000000    -4.437000000    -2.782000000
C     3.379000000    -3.296000000    -0.851000000
C     4.199000000    -2.452000000    -0.125000000
H     5.015000000    -1.905000000    -0.590000000
C     2.236000000    -3.821000000    -0.187000000
C     2.059000000    -3.618000000     1.156000000
H     1.182000000    -4.079000000     1.604000000
C     2.970000000    -2.852000000     1.853000000
O     2.749000000    -2.640000000     3.156000000
C     2.173000000    -1.365000000     3.481000000
C     1.176000000    -1.479000000     4.591000000
C     0.325000000    -2.589000000     4.571000000
H     0.555000000    -3.324000000     3.804000000
C     0.905000000    -0.443000000     5.422000000
H     1.569000000     0.417000000     5.415000000
O     3.174000000    -0.336000000     3.794000000
H     1.571000000    -0.950000000     2.659000000
C     4.032000000    -2.182000000     1.221000000
C     5.124000000    -1.346000000     1.920000000
H     6.103000000    -1.291000000     1.440000000
H     5.399000000    -1.633000000     2.937000000
C     4.568000000     0.092000000     1.890000000
C     3.624000000     0.515000000     2.890000000
C     3.163000000     1.797000000     2.930000000
H     2.348000000     2.053000000     3.602000000
C     3.515000000     2.667000000     1.926000000
O     2.822000000     3.783000000     1.868000000
C     1.638000000     3.831000000     1.039000000
H     1.380000000     2.788000000     0.801000000
C     0.413000000     4.504000000     1.613000000
C    -0.620000000     5.188000000     0.887000000
H    -0.543000000     5.247000000    -0.195000000
C     0.262000000     4.364000000     3.007000000
H     1.076000000     3.851000000     3.513000000
C    -0.750000000     4.948000000     3.670000000
O    -0.876000000     4.854000000     5.009000000
C    -1.793000000     5.566000000     2.932000000
H    -2.626000000     5.992000000     3.485000000
C    -1.748000000     5.644000000     1.523000000
O    -2.784000000     6.153000000     0.808000000
C    -2.895000000     5.875000000    -0.622000000
C    -3.633000000     4.829000000    -1.139000000
H    -3.891000000     3.988000000    -0.500000000
C    -2.369000000     6.862000000    -1.451000000
H    -1.775000000     7.695000000    -1.083000000
C    -2.490000000     6.724000000    -2.860000000
H    -2.025000000     7.453000000    -3.519000000
C    -3.205000000     5.608000000    -3.387000000
H    -3.228000000     5.585000000    -4.473000000
C    -3.729000000     4.660000000    -2.562000000
O    -4.373000000     3.641000000    -3.139000000
C    -3.782000000     2.528000000    -3.612000000
C    -4.484000000     1.577000000    -4.311000000
H    -5.552000000     1.772000000    -4.254000000
C    -3.895000000     0.400000000    -4.888000000
O    -4.713000000    -0.599000000    -5.447000000
C    -4.539000000    -1.933000000    -5.439000000
C    -4.542000000    -2.728000000    -4.285000000
H    -4.782000000    -2.329000000    -3.303000000
C    -4.287000000    -2.496000000    -6.661000000
H    -4.304000000    -1.862000000    -7.544000000
C    -4.137000000    -3.883000000    -6.814000000
H    -3.670000000    -4.336000000    -7.685000000
C    -4.104000000    -4.625000000    -5.691000000
H    -3.865000000    -5.681000000    -5.789000000
C    -4.326000000    -4.084000000    -4.433000000
O    -4.284000000    -4.862000000    -3.282000000
C    -3.365000000    -4.744000000    -2.207000000
C    -3.958000000    -4.612000000    -0.924000000
H    -5.027000000    -4.646000000    -0.730000000
C    -3.027000000    -4.456000000     0.103000000
O    -3.501000000    -4.504000000     1.371000000
C    -2.811000000    -4.930000000     2.474000000
C    -2.477000000    -4.098000000     3.492000000
H    -2.803000000    -3.061000000     3.467000000
C    -2.509000000    -6.272000000     2.539000000
H    -2.997000000    -6.821000000     1.738000000
C    -1.827000000    -6.859000000     3.650000000
H    -1.772000000    -7.945000000     3.682000000
C    -1.515000000    -6.042000000     4.731000000
H    -0.968000000    -6.412000000     5.595000000
C    -1.803000000    -4.646000000     4.595000000
O    -1.439000000    -3.841000000     5.607000000
C    -0.785000000    -2.675000000     5.406000000
C    -1.008000000    -1.672000000     6.279000000
H    -1.861000000    -1.755000000     6.948000000
C    -0.214000000    -0.498000000     6.232000000
O    -0.491000000     0.593000000     7.047000000
C     0.016000000     1.874000000     6.869000000
C     1.145000000     2.332000000     7.635000000
H     1.685000000     1.667000000     8.304000000
C     1.566000000     3.662000000     7.545000000
H     2.361000000     4.007000000     8.201000000
C     0.942000000     4.451000000     6.506000000
H     1.284000000     5.464000000     6.311000000
C    -0.132000000     3.955000000     5.757000000
C    -0.600000000     2.710000000     5.972000000
H    -1.382000000     2.333000000     5.318000000
C    -2.713000000    -0.875000000    -0.146000000
H    -3.498000000    -1.316000000    -0.755000000
C    -1.529000000    -0.600000000    -0.895000000
H    -1.506000000    -0.784000000    -1.966000000
C    -0.433000000    -0.182000000    -0.177000000
H     0.498000000    -0.043000000    -0.659000000
C    -0.513000000    -0.033000000     1.212000000
H     0.435000000     0.222000000     1.678000000
C    -1.701000000    -0.142000000     1.911000000
H    -1.808000000     0.110000000     2.963000000
C    -2.810000000    -0.561000000     1.219000000
C    -4.127000000    -0.860000000     1.979000000
O    -4.110000000    -1.120000000     3.163000000
O    -5.193000000    -1.115000000     1.467000000
O    -3.568000000     3.161000000     4.397000000
H    -4.178000000     3.759000000     4.828000000
H    -3.696000000     3.320000000     3.462000000
O    -7.218000000    -3.718000000    -2.827000000
H    -6.813000000    -2.942000000    -2.439000000
H    -7.696000000    -4.126000000    -2.105000000
O    -9.157000000     0.325000000     1.654000000
H   -10.053000000     0.107000000     1.910000000
H    -9.177000000     0.336000000     0.697000000
O    -8.395000000    -3.066000000     3.456000000
H    -9.140000000    -3.495000000     3.035000000
H    -7.749000000    -2.966000000     2.756000000
O    -3.731000000    -3.920000000     7.849000000
H    -3.506000000    -3.686000000     6.949000000
H    -3.523000000    -4.852000000     7.915000000
O    -9.117000000    -0.191000000    -0.890000000
H    -9.337000000    -1.122000000    -0.847000000
H    -8.730000000    -0.076000000    -1.758000000
O    -5.283000000     2.317000000     1.147000000
H    -5.420000000     1.597000000     1.763000000
H    -6.059000000     2.868000000     1.247000000
O    -4.946000000    -2.666000000     5.303000000
H    -4.595000000    -2.120000000     4.599000000
H    -5.647000000    -2.140000000     5.687000000
O    -5.803000000     0.880000000     7.603000000
H    -6.636000000     0.610000000     7.217000000
H    -5.187000000     0.878000000     6.870000000
O    -6.056000000    -5.307000000     5.056000000
H    -6.222000000    -5.005000000     5.949000000
H    -5.700000000    -4.540000000     4.606000000
O    -7.878000000    -4.970000000    -0.242000000
H    -7.342000000    -4.284000000     0.157000000
H    -7.906000000    -5.665000000     0.416000000
O    -6.267000000    -1.524000000    -1.185000000
H    -5.639000000    -1.596000000    -0.466000000
H    -6.735000000    -0.707000000    -1.013000000
O    -6.653000000     0.318000000     2.958000000
H    -7.493000000     0.313000000     2.498000000
H    -6.178000000    -0.430000000     2.596000000
O    -4.010000000     0.443000000     5.249000000
H    -3.664000000     1.222000000     4.815000000
H    -4.112000000    -0.198000000     4.546000000
O    -6.542000000     3.600000000     5.987000000
H    -6.444000000     2.656000000     5.861000000
H    -6.805000000     3.930000000     5.128000000
O    -7.610000000    -1.721000000     5.687000000
H    -7.824000000    -2.137000000     4.852000000
H    -7.642000000    -0.782000000     5.502000000
O    -6.341000000     1.286000000    -1.642000000
H    -5.722000000     1.030000000    -0.958000000
H    -6.657000000     2.147000000    -1.368000000
O    -6.414000000    -3.390000000     1.393000000
H    -6.060000000    -2.507000000     1.284000000
H    -5.779000000    -3.834000000     1.955000000
O    -7.618000000     0.876000000     5.557000000
H    -7.194000000     0.863000000     4.699000000
H    -8.418000000     1.385000000     5.422000000
