215
-1469.41083
C    -2.850000000     0.970000000    -4.350000000
H    -2.580000000    -0.003000000    -4.752000000
C    -1.925000000     1.955000000    -4.077000000
C    -2.308000000     3.126000000    -3.513000000
H    -1.571000000     3.816000000    -3.111000000
C    -0.492000000     1.594000000    -4.089000000
O    -0.264000000     0.508000000    -5.011000000
H    -0.247000000     1.231000000    -3.080000000
O     0.382000000     2.734000000    -4.331000000
C     1.462000000     2.887000000    -3.575000000
C     1.329000000     3.729000000    -2.463000000
H     0.466000000     4.380000000    -2.352000000
C     2.326000000     3.650000000    -1.534000000
O     2.079000000     4.344000000    -0.357000000
C     3.460000000     2.806000000    -1.767000000
C     4.615000000     2.986000000    -0.797000000
H     5.631000000     2.856000000    -1.176000000
C     4.477000000     1.892000000     0.373000000
C     4.953000000     0.587000000     0.299000000
H     5.416000000     0.304000000    -0.643000000
H     4.593000000     3.994000000    -0.379000000
C     3.554000000     2.053000000    -2.888000000
H     4.466000000     1.509000000    -3.121000000
C     2.497000000     2.028000000    -3.755000000
C     2.556000000     0.950000000    -4.903000000
H     3.492000000     0.805000000    -5.445000000
H     1.935000000     1.313000000    -5.725000000
C     1.924000000    -0.363000000    -4.447000000
C     2.697000000    -1.365000000    -3.896000000
H     3.750000000    -1.176000000    -3.706000000
C     0.546000000    -0.521000000    -4.583000000
C    -0.034000000    -1.779000000    -4.155000000
H    -1.109000000    -1.920000000    -4.070000000
C     0.774000000    -2.755000000    -3.622000000
O     0.229000000    -3.921000000    -3.155000000
C    -0.042000000    -4.008000000    -1.748000000
C    -1.430000000    -4.634000000    -1.469000000
C    -1.612000000    -5.310000000    -0.219000000
H    -0.808000000    -5.512000000     0.484000000
C    -2.495000000    -4.225000000    -2.241000000
H    -2.348000000    -3.569000000    -3.095000000
O     0.967000000    -4.797000000    -1.155000000
H    -0.128000000    -3.016000000    -1.281000000
C     2.127000000    -2.594000000    -3.512000000
C     3.036000000    -3.673000000    -2.939000000
H     4.014000000    -3.425000000    -3.356000000
H     2.702000000    -4.661000000    -3.264000000
C     3.070000000    -3.614000000    -1.413000000
C     4.137000000    -2.912000000    -0.800000000
H     4.826000000    -2.276000000    -1.350000000
C     2.062000000    -4.162000000    -0.640000000
C     1.979000000    -3.919000000     0.724000000
H     1.168000000    -4.409000000     1.256000000
C     2.967000000    -3.169000000     1.348000000
O     2.795000000    -2.901000000     2.710000000
C     2.392000000    -1.538000000     3.047000000
C     1.306000000    -1.587000000     4.101000000
C     0.197000000    -2.447000000     3.931000000
H     0.190000000    -3.107000000     3.067000000
C     1.382000000    -0.745000000     5.200000000
H     2.205000000    -0.080000000     5.449000000
O     3.541000000    -0.801000000     3.431000000
H     2.095000000    -1.118000000     2.075000000
C     4.076000000    -2.738000000     0.621000000
C     5.156000000    -1.737000000     1.235000000
H     6.056000000    -1.763000000     0.616000000
H     5.400000000    -2.035000000     2.257000000
C     4.686000000    -0.310000000     1.324000000
C     4.012000000     0.065000000     2.451000000
C     3.590000000     1.402000000     2.572000000
H     2.995000000     1.709000000     3.428000000
C     3.707000000     2.242000000     1.505000000
O     3.012000000     3.416000000     1.576000000
C     1.826000000     3.544000000     0.860000000
H     1.518000000     2.595000000     0.397000000
C     0.655000000     4.094000000     1.709000000
C    -0.517000000     4.474000000     1.069000000
H    -0.719000000     4.404000000     0.003000000
C     0.684000000     4.055000000     3.160000000
H     1.568000000     3.753000000     3.716000000
C    -0.401000000     4.494000000     3.926000000
O    -0.267000000     4.675000000     5.279000000
C    -1.548000000     4.964000000     3.257000000
H    -2.417000000     5.262000000     3.839000000
C    -1.553000000     4.959000000     1.865000000
O    -2.622000000     5.658000000     1.353000000
C    -2.744000000     6.082000000     0.026000000
C    -3.494000000     5.224000000    -0.765000000
H    -3.880000000     4.290000000    -0.366000000
C    -1.825000000     6.919000000    -0.506000000
H    -1.023000000     7.315000000     0.112000000
C    -1.777000000     7.124000000    -1.894000000
H    -1.014000000     7.758000000    -2.340000000
C    -2.745000000     6.469000000    -2.657000000
H    -2.750000000     6.611000000    -3.734000000
C    -3.533000000     5.460000000    -2.152000000
O    -4.247000000     4.618000000    -2.940000000
C    -3.653000000     3.386000000    -3.368000000
C    -4.566000000     2.471000000    -3.782000000
H    -5.623000000     2.668000000    -3.617000000
C    -4.215000000     1.201000000    -4.260000000
O    -5.195000000     0.348000000    -4.705000000
C    -4.965000000    -1.039000000    -4.858000000
C    -4.972000000    -1.897000000    -3.740000000
H    -5.246000000    -1.496000000    -2.768000000
C    -4.612000000    -1.508000000    -6.132000000
H    -4.685000000    -0.737000000    -6.895000000
C    -4.348000000    -2.889000000    -6.260000000
H    -4.072000000    -3.373000000    -7.193000000
C    -4.360000000    -3.726000000    -5.117000000
H    -4.060000000    -4.746000000    -5.345000000
C    -4.670000000    -3.215000000    -3.842000000
O    -4.801000000    -3.980000000    -2.687000000
C    -3.781000000    -4.486000000    -1.875000000
C    -3.969000000    -5.320000000    -0.796000000
H    -4.981000000    -5.503000000    -0.444000000
C    -2.945000000    -5.686000000     0.074000000
O    -3.234000000    -6.441000000     1.216000000
C    -2.720000000    -6.010000000     2.419000000
C    -2.801000000    -4.699000000     2.876000000
H    -3.186000000    -3.872000000     2.284000000
C    -2.078000000    -6.982000000     3.244000000
H    -2.071000000    -8.040000000     2.997000000
C    -1.374000000    -6.631000000     4.366000000
H    -0.822000000    -7.359000000     4.954000000
C    -1.413000000    -5.326000000     4.841000000
H    -0.932000000    -4.984000000     5.754000000
C    -2.048000000    -4.370000000     4.086000000
O    -2.044000000    -3.008000000     4.478000000
C    -0.903000000    -2.256000000     4.693000000
C    -0.843000000    -1.363000000     5.804000000
H    -1.693000000    -1.182000000     6.457000000
C     0.248000000    -0.608000000     6.009000000
O     0.368000000     0.254000000     7.118000000
C     0.653000000     1.582000000     7.094000000
C     1.549000000     2.095000000     8.025000000
H     2.025000000     1.359000000     8.667000000
C     1.790000000     3.432000000     8.139000000
H     2.370000000     3.900000000     8.930000000
C     1.171000000     4.320000000     7.239000000
H     1.358000000     5.383000000     7.370000000
C     0.359000000     3.832000000     6.195000000
C     0.190000000     2.426000000     6.066000000
H    -0.534000000     2.020000000     5.364000000
C    -2.211000000    -0.334000000     0.202000000
H    -3.059000000    -0.714000000    -0.361000000
C    -0.925000000    -0.212000000    -0.375000000
H    -0.835000000    -0.437000000    -1.435000000
C     0.196000000     0.128000000     0.356000000
H     1.121000000     0.198000000    -0.114000000
C     0.042000000     0.412000000     1.714000000
H     0.891000000     0.665000000     2.342000000
C    -1.241000000     0.397000000     2.304000000
H    -1.285000000     0.542000000     3.380000000
C    -2.341000000    -0.116000000     1.563000000
C    -3.756000000    -0.125000000     2.119000000
O    -3.962000000     0.396000000     3.204000000
O    -4.681000000    -0.676000000     1.577000000
O    -3.083000000     2.858000000     5.174000000
H    -3.729000000     3.039000000     4.492000000
H    -2.649000000     2.055000000     4.886000000
O    -7.972000000    -1.407000000    -1.779000000
H    -8.661000000    -0.778000000    -1.995000000
H    -7.281000000    -0.878000000    -1.380000000
O    -5.010000000     2.722000000     2.380000000
H    -4.994000000     1.794000000     2.613000000
H    -5.760000000     2.808000000     1.791000000
O    -4.477000000     0.829000000     8.149000000
H    -4.968000000     0.949000000     7.336000000
H    -3.638000000     1.262000000     7.988000000
O    -6.193000000    -2.871000000     3.595000000
H    -6.583000000    -2.010000000     3.444000000
H    -5.696000000    -2.770000000     4.407000000
O    -6.197000000    -6.046000000     3.933000000
H    -6.357000000    -5.213000000     3.489000000
H    -6.992000000    -6.203000000     4.442000000
O    -7.752000000    -3.618000000     0.581000000
H    -6.894000000    -3.449000000     0.970000000
H    -7.680000000    -3.283000000    -0.313000000
O    -6.108000000     0.427000000    -0.429000000
H    -5.717000000     0.057000000     0.362000000
H    -6.441000000     1.282000000    -0.154000000
O    -6.946000000    -0.294000000     3.006000000
H    -7.463000000    -0.758000000     2.347000000
H    -6.076000000    -0.213000000     2.614000000
O    -5.384000000     0.052000000     5.628000000
H    -6.211000000     0.419000000     5.315000000
H    -4.786000000     0.144000000     4.886000000
O    -2.931000000     3.210000000     7.786000000
H    -2.699000000     3.086000000     6.866000000
H    -3.792000000     3.629000000     7.762000000
O    -5.469000000     4.116000000     7.080000000
H    -6.136000000     3.726000000     7.646000000
H    -5.890000000     4.179000000     6.223000000
O    -4.805000000    -2.666000000     6.268000000
H    -4.021000000    -2.996000000     6.706000000
H    -4.677000000    -1.718000000     6.231000000
O    -8.349000000    -2.785000000     5.456000000
H    -7.714000000    -2.590000000     6.145000000
H    -7.842000000    -3.240000000     4.784000000
O    -7.032000000     2.970000000     0.443000000
H    -7.021000000     3.675000000    -0.205000000
H    -7.959000000     2.852000000     0.653000000
O    -5.160000000    -3.180000000     1.155000000
H    -4.997000000    -2.237000000     1.160000000
H    -5.408000000    -3.385000000     2.057000000
O    -7.831000000     1.381000000     4.989000000
H    -7.630000000     0.830000000     4.232000000
H    -7.592000000     2.265000000     4.713000000
O    -6.493000000     4.264000000     4.509000000
H    -6.046000000     3.940000000     3.727000000
H    -6.983000000     5.028000000     4.206000000
O    -9.710000000    -1.905000000     2.514000000
H    -9.990000000    -2.051000000     3.418000000
H    -9.433000000    -2.769000000     2.207000000
