215
-1452.75994
C    -2.969000000     0.506000000    -4.502000000
H    -2.770000000    -0.557000000    -4.610000000
C    -1.909000000     1.338000000    -4.392000000
C    -2.202000000     2.665000000    -4.531000000
H    -1.373000000     3.367000000    -4.518000000
C    -0.515000000     0.808000000    -4.259000000
O    -0.168000000    -0.473000000    -4.916000000
H    -0.371000000     0.655000000    -3.179000000
O     0.372000000     1.845000000    -4.636000000
C     1.487000000     1.958000000    -3.911000000
C     1.664000000     2.983000000    -3.048000000
H     0.884000000     3.735000000    -2.965000000
C     2.756000000     3.132000000    -2.211000000
O     2.622000000     4.075000000    -1.213000000
C     3.804000000     2.173000000    -2.161000000
C     4.880000000     2.253000000    -1.109000000
H     5.789000000     1.802000000    -1.514000000
C     4.412000000     1.543000000     0.139000000
C     4.744000000     0.190000000     0.356000000
H     5.136000000    -0.481000000    -0.404000000
H     5.227000000     3.267000000    -0.900000000
C     3.716000000     1.142000000    -3.122000000
H     4.516000000     0.412000000    -3.214000000
C     2.649000000     1.115000000    -4.054000000
C     2.703000000    -0.159000000    -4.919000000
H     3.712000000    -0.441000000    -5.229000000
H     2.113000000     0.057000000    -5.812000000
C     2.027000000    -1.349000000    -4.185000000
C     2.770000000    -2.315000000    -3.534000000
H     3.854000000    -2.233000000    -3.508000000
C     0.642000000    -1.387000000    -4.231000000
C    -0.040000000    -2.398000000    -3.549000000
H    -1.112000000    -2.578000000    -3.548000000
C     0.687000000    -3.332000000    -2.907000000
O    -0.009000000    -4.208000000    -2.227000000
C    -0.157000000    -3.960000000    -0.867000000
C    -1.590000000    -4.142000000    -0.413000000
C    -1.893000000    -4.269000000     0.961000000
H    -1.136000000    -4.312000000     1.740000000
C    -2.667000000    -3.837000000    -1.299000000
H    -2.554000000    -3.601000000    -2.354000000
O     0.702000000    -4.782000000    -0.027000000
H     0.055000000    -2.888000000    -0.738000000
C     2.087000000    -3.341000000    -2.848000000
C     2.925000000    -4.259000000    -1.995000000
H     3.943000000    -4.180000000    -2.380000000
H     2.651000000    -5.310000000    -2.113000000
C     2.908000000    -3.871000000    -0.479000000
C     3.960000000    -3.109000000     0.043000000
H     4.714000000    -2.807000000    -0.680000000
C     1.886000000    -4.239000000     0.392000000
C     1.986000000    -4.035000000     1.773000000
H     1.088000000    -4.268000000     2.340000000
C     3.039000000    -3.182000000     2.301000000
O     2.974000000    -2.593000000     3.562000000
C     2.385000000    -1.195000000     3.696000000
C     1.420000000    -1.128000000     4.853000000
C     0.629000000    -2.254000000     5.202000000
H     0.795000000    -3.116000000     4.561000000
C     1.212000000     0.062000000     5.543000000
H     1.686000000     0.967000000     5.171000000
O     3.461000000    -0.261000000     3.803000000
H     1.851000000    -0.944000000     2.768000000
C     4.047000000    -2.759000000     1.425000000
C     5.099000000    -1.845000000     1.825000000
H     5.959000000    -1.931000000     1.158000000
H     5.386000000    -2.088000000     2.850000000
C     4.578000000    -0.416000000     1.597000000
C     3.921000000     0.298000000     2.599000000
C     3.653000000     1.658000000     2.405000000
H     3.077000000     2.188000000     3.160000000
C     3.841000000     2.285000000     1.188000000
O     3.286000000     3.557000000     1.040000000
C     2.187000000     3.637000000     0.095000000
H     1.694000000     2.659000000     0.000000000
C     1.008000000     4.446000000     0.601000000
C     0.257000000     5.265000000    -0.236000000
H     0.406000000     5.354000000    -1.309000000
C     0.634000000     4.179000000     1.921000000
H     1.182000000     3.512000000     2.582000000
C    -0.524000000     4.823000000     2.417000000
O    -1.068000000     4.381000000     3.624000000
C    -1.351000000     5.606000000     1.578000000
H    -2.282000000     6.031000000     1.946000000
C    -0.989000000     5.815000000     0.286000000
O    -1.801000000     6.564000000    -0.487000000
C    -1.911000000     6.350000000    -1.880000000
C    -2.728000000     5.397000000    -2.429000000
H    -3.241000000     4.672000000    -1.802000000
C    -1.120000000     7.160000000    -2.743000000
H    -0.494000000     7.869000000    -2.208000000
C    -1.287000000     7.193000000    -4.152000000
H    -0.633000000     7.864000000    -4.703000000
C    -2.220000000     6.306000000    -4.689000000
H    -2.312000000     6.177000000    -5.764000000
C    -2.879000000     5.431000000    -3.835000000
O    -3.692000000     4.547000000    -4.451000000
C    -3.515000000     3.110000000    -4.451000000
C    -4.627000000     2.298000000    -4.413000000
H    -5.630000000     2.710000000    -4.492000000
C    -4.305000000     0.915000000    -4.509000000
O    -5.374000000     0.040000000    -4.437000000
C    -5.279000000    -1.388000000    -4.315000000
C    -5.210000000    -1.961000000    -3.047000000
H    -5.235000000    -1.274000000    -2.205000000
C    -5.244000000    -2.178000000    -5.468000000
H    -5.216000000    -1.749000000    -6.466000000
C    -5.004000000    -3.564000000    -5.280000000
H    -4.846000000    -4.283000000    -6.079000000
C    -4.941000000    -4.116000000    -4.039000000
H    -4.785000000    -5.181000000    -3.885000000
C    -5.012000000    -3.328000000    -2.927000000
O    -5.061000000    -3.972000000    -1.749000000
C    -4.001000000    -3.969000000    -0.909000000
C    -4.277000000    -4.070000000     0.419000000
H    -5.292000000    -3.906000000     0.772000000
C    -3.206000000    -4.160000000     1.355000000
O    -3.540000000    -4.105000000     2.702000000
C    -2.848000000    -4.699000000     3.773000000
C    -2.178000000    -3.827000000     4.675000000
H    -2.260000000    -2.762000000     4.471000000
C    -2.619000000    -6.080000000     3.825000000
H    -3.105000000    -6.714000000     3.088000000
C    -1.948000000    -6.565000000     4.955000000
H    -1.787000000    -7.637000000     5.038000000
C    -1.385000000    -5.725000000     5.934000000
H    -0.772000000    -6.189000000     6.702000000
C    -1.389000000    -4.311000000     5.733000000
O    -0.816000000    -3.458000000     6.618000000
C    -0.267000000    -2.245000000     6.214000000
C    -0.511000000    -1.053000000     6.932000000
H    -1.223000000    -0.928000000     7.744000000
C     0.157000000     0.093000000     6.477000000
O    -0.171000000     1.245000000     7.073000000
C     0.063000000     2.477000000     6.579000000
C     0.890000000     3.395000000     7.198000000
H     1.383000000     3.189000000     8.145000000
C     1.104000000     4.604000000     6.555000000
H     1.750000000     5.363000000     6.989000000
C     0.639000000     4.893000000     5.284000000
H     0.926000000     5.883000000     4.938000000
C    -0.290000000     3.987000000     4.713000000
C    -0.443000000     2.749000000     5.350000000
H    -1.061000000     2.048000000     4.794000000
C    -2.321000000    -0.991000000     0.517000000
H    -3.317000000    -1.416000000     0.417000000
C    -1.486000000    -0.887000000    -0.550000000
H    -1.841000000    -1.174000000    -1.537000000
C    -0.197000000    -0.430000000    -0.463000000
H     0.543000000    -0.331000000    -1.262000000
C     0.303000000     0.034000000     0.776000000
H     1.336000000     0.371000000     0.819000000
C    -0.550000000    -0.035000000     1.900000000
H    -0.248000000     0.338000000     2.876000000
C    -1.866000000    -0.472000000     1.754000000
C    -2.828000000    -0.322000000     2.892000000
O    -2.509000000     0.060000000     4.005000000
O    -4.043000000    -0.437000000     2.737000000
O    -3.595000000     2.350000000     5.488000000
H    -3.876000000     3.071000000     4.925000000
H    -3.553000000     1.593000000     4.905000000
O    -3.098000000     5.474000000     6.527000000
H    -2.657000000     4.729000000     6.118000000
H    -2.401000000     5.941000000     6.988000000
O    -7.819000000    -2.925000000    -1.003000000
H    -7.380000000    -3.769000000    -0.894000000
H    -7.524000000    -2.404000000    -0.256000000
O    -8.065000000    -0.356000000     3.364000000
H    -7.412000000    -0.844000000     2.864000000
H    -7.552000000     0.221000000     3.930000000
O    -6.135000000     1.268000000    -0.731000000
H    -6.096000000     0.442000000    -0.250000000
H    -7.068000000     1.405000000    -0.898000000
O    -3.669000000     3.175000000     2.285000000
H    -3.542000000     2.794000000     1.416000000
H    -2.782000000     3.334000000     2.609000000
O    -3.602000000    -3.095000000     8.614000000
H    -3.364000000    -2.591000000     7.836000000
H    -2.925000000    -2.878000000     9.256000000
O    -4.746000000     0.180000000     8.813000000
H    -4.359000000    -0.231000000     8.040000000
H    -5.689000000     0.154000000     8.651000000
O    -7.270000000     1.379000000     7.453000000
H    -6.982000000     2.126000000     6.928000000
H    -7.292000000     0.647000000     6.837000000
O    -6.639000000    -3.583000000     6.557000000
H    -6.092000000    -4.364000000     6.634000000
H    -6.247000000    -3.085000000     5.839000000
O    -3.536000000     2.196000000    -0.314000000
H    -3.052000000     1.743000000    -1.004000000
H    -4.428000000     2.266000000    -0.654000000
O    -5.725000000     1.657000000     3.290000000
H    -5.256000000     2.289000000     2.745000000
H    -5.309000000     0.817000000     3.093000000
O    -3.509000000    -0.771000000     6.613000000
H    -2.923000000    -0.548000000     5.890000000
H    -4.319000000    -1.052000000     6.187000000
O    -3.884000000     2.936000000     8.111000000
H    -4.348000000     2.274000000     8.624000000
H    -3.853000000     2.574000000     7.225000000
O    -6.974000000    -3.081000000     2.758000000
H    -7.869000000    -3.268000000     2.473000000
H    -6.632000000    -3.928000000     3.043000000
O    -7.656000000     2.823000000     4.577000000
H    -8.169000000     3.198000000     3.861000000
H    -6.982000000     2.301000000     4.142000000
O    -5.348000000    -2.127000000     4.630000000
H    -4.817000000    -1.613000000     4.022000000
H    -6.026000000    -2.523000000     4.081000000
O    -5.863000000     5.328000000     0.064000000
H    -6.256000000     5.518000000     0.916000000
H    -5.203000000     4.659000000     0.249000000
O    -6.116000000    -1.233000000     0.879000000
H    -6.475000000    -1.914000000     1.449000000
H    -5.254000000    -1.042000000     1.249000000
