215
-1458.82828
C    -2.700000000    -0.188000000    -4.593000000
H    -2.443000000    -1.244000000    -4.639000000
C    -1.705000000     0.766000000    -4.324000000
C    -2.018000000     2.115000000    -4.219000000
H    -1.260000000     2.875000000    -4.048000000
C    -0.294000000     0.308000000    -4.156000000
O     0.028000000    -0.949000000    -4.824000000
H    -0.160000000     0.201000000    -3.070000000
O     0.648000000     1.301000000    -4.701000000
C     1.674000000     1.653000000    -3.923000000
C     1.524000000     2.774000000    -3.114000000
H     0.601000000     3.350000000    -3.111000000
C     2.509000000     3.055000000    -2.138000000
O     2.281000000     4.106000000    -1.336000000
C     3.705000000     2.354000000    -2.222000000
C     4.786000000     2.651000000    -1.170000000
H     5.786000000     2.278000000    -1.401000000
C     4.423000000     1.957000000     0.198000000
C     4.885000000     0.664000000     0.562000000
H     5.587000000     0.130000000    -0.074000000
H     4.898000000     3.702000000    -0.897000000
C     3.834000000     1.219000000    -2.981000000
H     4.630000000     0.495000000    -2.827000000
C     2.843000000     0.865000000    -3.917000000
C     2.990000000    -0.381000000    -4.689000000
H     4.033000000    -0.702000000    -4.640000000
H     2.767000000    -0.225000000    -5.747000000
C     2.218000000    -1.572000000    -4.021000000
C     2.930000000    -2.431000000    -3.172000000
H     4.017000000    -2.437000000    -3.143000000
C     0.852000000    -1.769000000    -4.189000000
C     0.199000000    -2.871000000    -3.616000000
H    -0.885000000    -2.916000000    -3.680000000
C     0.892000000    -3.665000000    -2.719000000
O     0.107000000    -4.558000000    -1.976000000
C    -0.150000000    -4.200000000    -0.585000000
C    -1.576000000    -4.549000000    -0.261000000
C    -1.955000000    -4.551000000     1.063000000
H    -1.149000000    -4.347000000     1.763000000
C    -2.585000000    -4.693000000    -1.198000000
H    -2.409000000    -4.664000000    -2.270000000
O     0.814000000    -4.857000000     0.308000000
H     0.068000000    -3.124000000    -0.653000000
C     2.272000000    -3.528000000    -2.529000000
C     3.044000000    -4.373000000    -1.537000000
H     4.095000000    -4.325000000    -1.828000000
H     2.700000000    -5.409000000    -1.513000000
C     2.954000000    -3.808000000    -0.172000000
C     3.958000000    -2.939000000     0.298000000
H     4.742000000    -2.653000000    -0.398000000
C     1.826000000    -4.071000000     0.677000000
C     1.798000000    -3.577000000     1.960000000
H     0.968000000    -3.798000000     2.626000000
C     2.819000000    -2.769000000     2.468000000
O     2.622000000    -2.183000000     3.688000000
C     2.047000000    -0.853000000     3.658000000
C     1.077000000    -0.717000000     4.828000000
C     0.338000000    -1.800000000     5.279000000
H     0.477000000    -2.805000000     4.890000000
C     0.653000000     0.537000000     5.322000000
H     1.268000000     1.348000000     4.941000000
O     3.124000000     0.164000000     3.761000000
H     1.455000000    -0.884000000     2.731000000
C     3.893000000    -2.408000000     1.606000000
C     4.878000000    -1.376000000     1.953000000
H     5.663000000    -1.591000000     1.225000000
H     5.219000000    -1.558000000     2.975000000
C     4.392000000    -0.002000000     1.724000000
C     3.657000000     0.748000000     2.630000000
C     3.229000000     2.026000000     2.385000000
H     2.633000000     2.521000000     3.148000000
C     3.594000000     2.624000000     1.144000000
O     3.008000000     3.798000000     0.864000000
C     1.877000000     3.828000000    -0.003000000
H     1.339000000     2.869000000    -0.019000000
C     0.856000000     4.908000000     0.483000000
C    -0.002000000     5.456000000    -0.486000000
H     0.191000000     5.329000000    -1.548000000
C     0.600000000     5.088000000     1.878000000
H     1.209000000     4.439000000     2.502000000
C    -0.463000000     5.743000000     2.289000000
O    -0.819000000     5.846000000     3.610000000
C    -1.279000000     6.376000000     1.318000000
H    -2.090000000     7.010000000     1.666000000
C    -1.071000000     6.203000000    -0.049000000
O    -1.853000000     6.915000000    -0.971000000
C    -2.040000000     6.486000000    -2.310000000
C    -2.691000000     5.296000000    -2.556000000
H    -3.055000000     4.682000000    -1.736000000
C    -1.594000000     7.304000000    -3.326000000
H    -1.248000000     8.283000000    -3.004000000
C    -1.757000000     6.861000000    -4.648000000
H    -1.393000000     7.400000000    -5.519000000
C    -2.452000000     5.653000000    -4.942000000
H    -2.669000000     5.377000000    -5.971000000
C    -2.953000000     4.859000000    -3.866000000
O    -3.776000000     3.742000000    -4.185000000
C    -3.399000000     2.443000000    -4.220000000
C    -4.387000000     1.483000000    -4.437000000
H    -5.419000000     1.779000000    -4.607000000
C    -4.028000000     0.141000000    -4.470000000
O    -5.031000000    -0.736000000    -4.646000000
C    -4.916000000    -2.133000000    -4.474000000
C    -5.141000000    -2.725000000    -3.216000000
H    -5.659000000    -2.132000000    -2.466000000
C    -4.567000000    -2.938000000    -5.586000000
H    -4.203000000    -2.560000000    -6.538000000
C    -4.493000000    -4.331000000    -5.462000000
H    -4.363000000    -4.989000000    -6.316000000
C    -4.624000000    -4.930000000    -4.195000000
H    -4.463000000    -5.976000000    -3.949000000
C    -4.849000000    -4.120000000    -3.072000000
O    -4.938000000    -4.686000000    -1.773000000
C    -3.901000000    -4.715000000    -0.834000000
C    -4.253000000    -4.642000000     0.512000000
H    -5.287000000    -4.533000000     0.832000000
C    -3.294000000    -4.664000000     1.523000000
O    -3.674000000    -4.593000000     2.831000000
C    -2.778000000    -4.716000000     3.896000000
C    -2.418000000    -3.598000000     4.721000000
H    -2.812000000    -2.614000000     4.481000000
C    -2.464000000    -5.995000000     4.344000000
H    -2.844000000    -6.877000000     3.835000000
C    -1.792000000    -6.205000000     5.545000000
H    -1.582000000    -7.219000000     5.874000000
C    -1.205000000    -5.172000000     6.209000000
H    -0.754000000    -5.381000000     7.175000000
C    -1.596000000    -3.834000000     5.888000000
O    -1.333000000    -2.743000000     6.725000000
C    -0.603000000    -1.673000000     6.299000000
C    -0.978000000    -0.365000000     6.736000000
H    -1.781000000    -0.232000000     7.456000000
C    -0.345000000     0.722000000     6.206000000
O    -0.636000000     2.047000000     6.582000000
C    -0.001000000     3.121000000     6.105000000
C     1.351000000     3.368000000     6.311000000
H     1.915000000     2.647000000     6.898000000
C     1.906000000     4.608000000     5.843000000
H     2.939000000     4.867000000     6.058000000
C     1.145000000     5.446000000     4.970000000
H     1.638000000     6.301000000     4.515000000
C    -0.132000000     5.063000000     4.623000000
C    -0.726000000     4.004000000     5.274000000
H    -1.747000000     3.764000000     4.988000000
C    -2.617000000    -0.506000000     0.683000000
H    -3.575000000    -0.910000000     0.364000000
C    -1.705000000    -0.134000000    -0.264000000
H    -1.695000000    -0.410000000    -1.315000000
C    -0.541000000     0.504000000     0.155000000
H     0.199000000     0.767000000    -0.582000000
C    -0.301000000     0.854000000     1.480000000
H     0.542000000     1.510000000     1.685000000
C    -1.325000000     0.560000000     2.420000000
H    -1.260000000     1.056000000     3.385000000
C    -2.500000000    -0.109000000     2.036000000
C    -3.624000000    -0.375000000     3.026000000
O    -3.451000000    -0.053000000     4.193000000
O    -4.655000000    -0.862000000     2.626000000
O    -3.929000000     2.478000000     4.744000000
H    -4.450000000     2.466000000     3.942000000
H    -3.818000000     1.555000000     4.971000000
O    -8.571000000    -3.508000000    -0.750000000
H    -9.362000000    -3.404000000    -0.221000000
H    -7.851000000    -3.418000000    -0.126000000
O    -8.114000000     0.625000000     2.149000000
H    -7.519000000     1.374000000     2.130000000
H    -7.729000000    -0.003000000     1.537000000
O    -4.765000000     2.002000000    -1.012000000
H    -4.756000000     2.908000000    -1.322000000
H    -5.150000000     1.506000000    -1.734000000
O    -4.355000000     4.328000000     2.268000000
H    -3.597000000     3.914000000     1.855000000
H    -4.005000000     5.123000000     2.670000000
O    -4.489000000    -3.508000000     8.128000000
H    -4.314000000    -2.814000000     7.493000000
H    -3.625000000    -3.751000000     8.461000000
O    -5.853000000    -0.952000000     9.092000000
H    -5.460000000    -1.684000000     9.566000000
H    -6.513000000    -1.358000000     8.529000000
O    -7.377000000    -4.220000000     5.806000000
H    -6.762000000    -4.835000000     6.206000000
H    -6.873000000    -3.796000000     5.111000000
O    -9.663000000     1.481000000     4.228000000
H    -9.092000000     1.206000000     3.510000000
H    -9.860000000     2.398000000     4.038000000
O    -5.236000000    -5.718000000     6.330000000
H    -4.646000000    -6.438000000     6.554000000
H    -4.814000000    -4.940000000     6.695000000
O    -2.742000000     2.852000000     0.622000000
H    -2.201000000     2.166000000     1.013000000
H    -3.163000000     2.428000000    -0.125000000
O    -6.380000000     2.427000000     1.395000000
H    -6.257000000     3.328000000     1.694000000
H    -5.681000000     2.289000000     0.755000000
O    -4.675000000    -1.558000000     6.282000000
H    -4.334000000    -1.069000000     5.534000000
H    -5.237000000    -0.933000000     6.741000000
O    -4.776000000     4.039000000     6.614000000
H    -4.371000000     3.527000000     5.915000000
H    -5.406000000     3.441000000     7.016000000
O    -6.235000000     1.579000000     6.869000000
H    -6.224000000     0.884000000     7.527000000
H    -6.194000000     1.117000000     6.032000000
O    -7.458000000    -5.101000000     1.723000000
H    -8.415000000    -5.115000000     1.720000000
H    -7.229000000    -4.515000000     2.444000000
O    -6.272000000     0.266000000     4.612000000
H    -5.420000000     0.080000000     4.219000000
H    -6.857000000     0.395000000     3.866000000
O    -6.037000000    -3.418000000     3.718000000
H    -5.749000000    -2.565000000     3.395000000
H    -5.236000000    -3.942000000     3.757000000
O    -6.183000000    -0.450000000     0.157000000
H    -5.584000000    -0.517000000     0.901000000
H    -5.763000000     0.176000000    -0.433000000
