215
-1431.79662
C    -2.748000000    -0.082000000    -4.009000000
H    -2.548000000    -1.102000000    -3.690000000
C    -1.690000000     0.741000000    -4.229000000
C    -1.854000000     2.065000000    -4.598000000
H    -1.025000000     2.769000000    -4.598000000
C    -0.343000000     0.077000000    -4.100000000
O    -0.261000000    -1.253000000    -4.611000000
H    -0.026000000     0.106000000    -3.047000000
O     0.648000000     0.800000000    -4.813000000
C     1.862000000     1.120000000    -4.234000000
C     2.014000000     2.383000000    -3.629000000
H     1.319000000     3.161000000    -3.935000000
C     3.073000000     2.633000000    -2.755000000
O     2.968000000     3.616000000    -1.823000000
C     4.010000000     1.630000000    -2.480000000
C     5.118000000     1.801000000    -1.473000000
H     5.926000000     1.185000000    -1.873000000
C     4.650000000     1.335000000    -0.112000000
C     5.001000000     0.053000000     0.273000000
H     5.514000000    -0.696000000    -0.325000000
H     5.508000000     2.816000000    -1.365000000
C     3.884000000     0.414000000    -3.183000000
H     4.572000000    -0.402000000    -2.980000000
C     2.795000000     0.161000000    -3.979000000
C     2.611000000    -1.178000000    -4.668000000
H     3.598000000    -1.561000000    -4.936000000
H     2.085000000    -0.985000000    -5.605000000
C     1.762000000    -2.171000000    -3.883000000
C     2.448000000    -3.068000000    -3.062000000
H     3.527000000    -2.964000000    -2.979000000
C     0.399000000    -2.185000000    -3.896000000
C    -0.347000000    -3.139000000    -3.306000000
H    -1.424000000    -3.235000000    -3.417000000
C     0.288000000    -3.994000000    -2.416000000
O    -0.538000000    -4.725000000    -1.565000000
C    -0.701000000    -4.306000000    -0.179000000
C    -2.113000000    -4.504000000     0.379000000
C    -2.420000000    -4.784000000     1.740000000
H    -1.600000000    -4.915000000     2.442000000
C    -3.185000000    -4.400000000    -0.458000000
H    -2.962000000    -4.176000000    -1.498000000
O     0.272000000    -4.923000000     0.788000000
H    -0.672000000    -3.212000000    -0.288000000
C     1.675000000    -3.909000000    -2.250000000
C     2.345000000    -4.773000000    -1.209000000
H     3.359000000    -4.988000000    -1.552000000
H     1.855000000    -5.743000000    -1.096000000
C     2.476000000    -4.064000000     0.158000000
C     3.612000000    -3.349000000     0.535000000
H     4.329000000    -3.092000000    -0.240000000
C     1.493000000    -4.224000000     1.114000000
C     1.523000000    -3.683000000     2.373000000
H     0.668000000    -3.784000000     3.037000000
C     2.652000000    -2.883000000     2.692000000
O     2.528000000    -2.133000000     3.817000000
C     2.244000000    -0.720000000     3.693000000
C     1.218000000    -0.275000000     4.794000000
C     0.144000000    -1.091000000     5.111000000
H     0.295000000    -2.146000000     4.899000000
C     1.113000000     1.047000000     5.219000000
H     1.871000000     1.735000000     4.853000000
O     3.469000000     0.168000000     3.714000000
H     1.719000000    -0.559000000     2.740000000
C     3.736000000    -2.750000000     1.787000000
C     4.922000000    -1.807000000     1.974000000
H     5.838000000    -2.161000000     1.497000000
H     5.215000000    -1.760000000     3.025000000
C     4.639000000    -0.390000000     1.580000000
C     4.048000000     0.568000000     2.444000000
C     3.817000000     1.866000000     2.027000000
H     3.456000000     2.656000000     2.680000000
C     3.949000000     2.158000000     0.729000000
O     3.432000000     3.381000000     0.321000000
C     2.321000000     3.432000000    -0.586000000
H     1.838000000     2.444000000    -0.574000000
C     1.266000000     4.477000000    -0.210000000
C     0.474000000     5.069000000    -1.213000000
H     0.679000000     4.824000000    -2.252000000
C     1.038000000     4.819000000     1.159000000
H     1.710000000     4.333000000     1.862000000
C    -0.038000000     5.674000000     1.467000000
O    -0.450000000     5.813000000     2.755000000
C    -0.824000000     6.301000000     0.478000000
H    -1.643000000     6.963000000     0.748000000
C    -0.554000000     5.992000000    -0.883000000
O    -1.328000000     6.622000000    -1.840000000
C    -1.353000000     6.144000000    -3.169000000
C    -2.428000000     5.312000000    -3.540000000
H    -3.001000000     4.900000000    -2.713000000
C    -0.461000000     6.561000000    -4.166000000
H     0.231000000     7.364000000    -3.926000000
C    -0.591000000     6.057000000    -5.455000000
H     0.116000000     6.321000000    -6.238000000
C    -1.660000000     5.175000000    -5.801000000
H    -1.754000000     4.748000000    -6.796000000
C    -2.547000000     4.805000000    -4.828000000
O    -3.469000000     3.807000000    -5.035000000
C    -3.164000000     2.521000000    -4.736000000
C    -4.248000000     1.680000000    -4.480000000
H    -5.222000000     2.158000000    -4.540000000
C    -4.065000000     0.394000000    -3.987000000
O    -5.099000000    -0.402000000    -3.694000000
C    -5.104000000    -1.782000000    -3.556000000
C    -5.365000000    -2.278000000    -2.280000000
H    -5.472000000    -1.667000000    -1.387000000
C    -4.931000000    -2.594000000    -4.667000000
H    -4.899000000    -2.142000000    -5.655000000
C    -4.894000000    -4.008000000    -4.453000000
H    -4.687000000    -4.594000000    -5.345000000
C    -5.065000000    -4.555000000    -3.172000000
H    -5.020000000    -5.636000000    -3.065000000
C    -5.368000000    -3.715000000    -2.095000000
O    -5.563000000    -4.275000000    -0.829000000
C    -4.508000000    -4.546000000    -0.019000000
C    -4.761000000    -4.625000000     1.333000000
H    -5.768000000    -4.518000000     1.728000000
C    -3.742000000    -4.764000000     2.214000000
O    -4.063000000    -4.880000000     3.506000000
C    -3.280000000    -4.473000000     4.574000000
C    -2.951000000    -3.164000000     4.821000000
H    -3.177000000    -2.315000000     4.182000000
C    -2.926000000    -5.511000000     5.467000000
H    -3.219000000    -6.524000000     5.206000000
C    -2.097000000    -5.240000000     6.564000000
H    -1.755000000    -5.955000000     7.308000000
C    -1.721000000    -3.940000000     6.788000000
H    -1.150000000    -3.695000000     7.679000000
C    -2.155000000    -2.875000000     5.961000000
O    -1.822000000    -1.509000000     6.320000000
C    -0.907000000    -0.606000000     5.878000000
C    -0.940000000     0.698000000     6.321000000
H    -1.781000000     1.122000000     6.865000000
C     0.101000000     1.520000000     5.960000000
O     0.013000000     2.786000000     6.419000000
C     0.423000000     3.878000000     5.730000000
C     1.422000000     4.682000000     6.247000000
H     2.029000000     4.452000000     7.119000000
C     1.946000000     5.723000000     5.540000000
H     2.586000000     6.530000000     5.887000000
C     1.354000000     6.098000000     4.368000000
H     1.497000000     7.094000000     3.957000000
C     0.265000000     5.345000000     3.848000000
C    -0.244000000     4.281000000     4.565000000
H    -1.120000000     3.721000000     4.250000000
C    -2.685000000    -0.354000000     0.210000000
H    -3.655000000    -0.723000000    -0.112000000
C    -1.601000000    -0.323000000    -0.606000000
H    -1.820000000    -0.571000000    -1.641000000
C    -0.420000000     0.261000000    -0.146000000
H     0.522000000     0.203000000    -0.667000000
C    -0.351000000     0.738000000     1.147000000
H     0.584000000     1.224000000     1.414000000
C    -1.408000000     0.581000000     2.057000000
H    -1.318000000     0.965000000     3.070000000
C    -2.638000000     0.084000000     1.569000000
C    -3.813000000    -0.053000000     2.526000000
O    -3.689000000     0.554000000     3.569000000
O    -4.710000000    -0.868000000     2.278000000
O    -6.669000000     5.057000000     5.275000000
H    -5.731000000     4.866000000     5.263000000
H    -7.087000000     4.197000000     5.324000000
O    -3.739000000     2.440000000     5.737000000
H    -4.252000000     1.927000000     6.362000000
H    -3.461000000     1.805000000     5.077000000
O    -9.357000000    -1.177000000    -0.456000000
H   -10.002000000    -1.335000000     0.233000000
H    -8.669000000    -0.668000000    -0.027000000
O    -8.318000000     2.108000000     2.091000000
H    -8.001000000     1.228000000     1.888000000
H    -7.911000000     2.668000000     1.430000000
O    -5.104000000     1.511000000    -0.898000000
H    -4.287000000     2.009000000    -0.932000000
H    -5.503000000     1.647000000    -1.757000000
O    -4.135000000     3.565000000     1.767000000
H    -3.510000000     3.166000000     1.162000000
H    -3.878000000     3.234000000     2.628000000
O    -8.816000000    -0.956000000     4.715000000
H    -7.987000000    -1.433000000     4.674000000
H    -9.149000000    -0.977000000     3.818000000
O    -8.280000000     2.835000000     5.341000000
H    -8.496000000     2.287000000     6.095000000
H    -8.904000000     2.569000000     4.665000000
O    -2.582000000     2.558000000    -0.125000000
H    -2.357000000     1.628000000    -0.114000000
H    -1.738000000     3.009000000    -0.093000000
O    -6.596000000     3.897000000     0.240000000
H    -5.916000000     4.400000000     0.689000000
H    -6.198000000     3.039000000     0.088000000
O    -3.275000000    -2.163000000     8.791000000
H    -2.453000000    -2.222000000     9.277000000
H    -3.030000000    -2.337000000     7.883000000
O    -8.276000000    -3.861000000     1.602000000
H    -9.195000000    -4.123000000     1.645000000
H    -8.282000000    -3.046000000     1.101000000
O    -6.742000000     1.387000000     7.705000000
H    -7.094000000     0.742000000     8.319000000
H    -6.229000000     0.870000000     7.083000000
O    -3.039000000     5.225000000     5.511000000
H    -3.146000000     4.311000000     5.775000000
H    -3.601000000     5.715000000     6.111000000
O    -5.484000000    -0.413000000     5.396000000
H    -4.771000000    -0.347000000     4.761000000
H    -6.117000000    -1.002000000     4.985000000
O    -6.754000000    -1.928000000     3.404000000
H    -5.999000000    -1.610000000     2.909000000
H    -7.038000000    -2.710000000     2.932000000
O    -3.683000000     6.483000000     2.725000000
H    -3.363000000     5.854000000     3.371000000
H    -3.906000000     5.951000000     1.962000000
O    -6.559000000    -2.278000000     7.888000000
H    -5.921000000    -1.963000000     7.247000000
H    -6.425000000    -3.225000000     7.913000000
O    -6.831000000     0.103000000     1.024000000
H    -6.134000000    -0.296000000     1.545000000
H    -6.371000000     0.568000000     0.325000000
