215
-1452.92446
C    -2.850000000     0.823000000    -4.667000000
H    -2.948000000    -0.215000000    -4.973000000
C    -1.637000000     1.402000000    -4.312000000
C    -1.593000000     2.705000000    -3.886000000
H    -0.627000000     3.153000000    -3.666000000
C    -0.423000000     0.423000000    -4.318000000
O    -0.642000000    -0.753000000    -5.204000000
H    -0.222000000     0.042000000    -3.306000000
O     0.715000000     1.046000000    -4.771000000
C     1.802000000     0.995000000    -3.970000000
C     2.012000000     1.995000000    -3.037000000
H     1.374000000     2.867000000    -2.918000000
C     3.202000000     1.950000000    -2.206000000
O     3.525000000     2.997000000    -1.430000000
C     4.043000000     0.853000000    -2.303000000
C     5.276000000     0.667000000    -1.390000000
H     5.984000000    -0.045000000    -1.821000000
C     4.821000000     0.221000000    -0.019000000
C     4.708000000    -1.166000000     0.224000000
H     4.977000000    -1.887000000    -0.544000000
H     5.921000000     1.538000000    -1.260000000
C     3.803000000    -0.121000000    -3.231000000
H     4.414000000    -1.016000000    -3.317000000
C     2.646000000    -0.118000000    -4.011000000
C     2.322000000    -1.228000000    -5.056000000
H     3.265000000    -1.697000000    -5.348000000
H     2.010000000    -0.722000000    -5.972000000
C     1.255000000    -2.196000000    -4.582000000
C     1.672000000    -3.246000000    -3.809000000
H     2.749000000    -3.361000000    -3.718000000
C    -0.125000000    -1.944000000    -4.717000000
C    -1.002000000    -2.627000000    -3.862000000
H    -2.035000000    -2.290000000    -3.862000000
C    -0.601000000    -3.618000000    -2.965000000
O    -1.548000000    -4.123000000    -2.110000000
C    -1.550000000    -3.757000000    -0.741000000
C    -2.995000000    -3.559000000    -0.272000000
C    -3.535000000    -4.118000000     0.953000000
H    -2.939000000    -4.814000000     1.537000000
C    -3.835000000    -2.693000000    -0.977000000
H    -3.415000000    -2.202000000    -1.851000000
O    -0.885000000    -4.885000000    -0.011000000
H    -0.892000000    -2.893000000    -0.562000000
C     0.748000000    -3.888000000    -2.950000000
C     1.347000000    -4.948000000    -2.061000000
H     2.349000000    -5.165000000    -2.437000000
H     0.883000000    -5.920000000    -2.240000000
C     1.489000000    -4.567000000    -0.573000000
C     2.742000000    -4.211000000    -0.128000000
H     3.468000000    -4.175000000    -0.936000000
C     0.418000000    -4.661000000     0.386000000
C     0.622000000    -4.188000000     1.695000000
H    -0.222000000    -4.296000000     2.371000000
C     1.868000000    -3.613000000     2.049000000
O     1.953000000    -3.007000000     3.296000000
C     1.982000000    -1.590000000     3.285000000
C     0.983000000    -0.960000000     4.368000000
C    -0.194000000    -1.623000000     4.651000000
H    -0.425000000    -2.575000000     4.180000000
C     1.078000000     0.394000000     4.597000000
H     1.989000000     0.908000000     4.302000000
O     3.297000000    -1.120000000     3.537000000
H     1.640000000    -1.274000000     2.288000000
C     2.934000000    -3.743000000     1.151000000
C     4.310000000    -3.204000000     1.533000000
H     5.093000000    -3.606000000     0.887000000
H     4.490000000    -3.533000000     2.558000000
C     4.380000000    -1.673000000     1.402000000
C     3.977000000    -0.769000000     2.398000000
C     4.204000000     0.580000000     2.222000000
H     3.939000000     1.133000000     3.120000000
C     4.619000000     1.104000000     1.031000000
O     4.494000000     2.483000000     0.717000000
C     3.311000000     2.900000000    -0.002000000
H     2.615000000     2.076000000     0.215000000
C     2.645000000     4.113000000     0.629000000
C     1.669000000     4.804000000    -0.100000000
H     1.427000000     4.561000000    -1.132000000
C     2.959000000     4.404000000     1.918000000
H     3.560000000     3.799000000     2.592000000
C     2.314000000     5.454000000     2.555000000
O     2.575000000     5.715000000     3.903000000
C     1.357000000     6.206000000     1.858000000
H     0.846000000     7.027000000     2.353000000
C     1.034000000     5.874000000     0.551000000
O    -0.095000000     6.468000000     0.000000000
C    -0.405000000     6.268000000    -1.322000000
C    -1.430000000     5.409000000    -1.795000000
H    -2.080000000     4.820000000    -1.153000000
C     0.261000000     7.099000000    -2.228000000
H     1.027000000     7.750000000    -1.814000000
C    -0.040000000     7.102000000    -3.583000000
H     0.580000000     7.728000000    -4.219000000
C    -1.156000000     6.321000000    -4.024000000
H    -1.375000000     6.230000000    -5.085000000
C    -1.797000000     5.480000000    -3.133000000
O    -2.840000000     4.732000000    -3.526000000
C    -2.769000000     3.445000000    -3.880000000
C    -3.971000000     2.882000000    -4.198000000
H    -4.939000000     3.371000000    -4.126000000
C    -4.004000000     1.582000000    -4.642000000
O    -5.227000000     1.065000000    -5.039000000
C    -5.580000000    -0.105000000    -4.435000000
C    -5.666000000    -0.172000000    -3.051000000
H    -5.494000000     0.719000000    -2.453000000
C    -5.789000000    -1.323000000    -5.198000000
H    -5.634000000    -1.294000000    -6.273000000
C    -6.051000000    -2.470000000    -4.531000000
H    -6.189000000    -3.392000000    -5.089000000
C    -6.132000000    -2.479000000    -3.151000000
H    -6.412000000    -3.403000000    -2.652000000
C    -5.981000000    -1.305000000    -2.419000000
O    -5.856000000    -1.284000000    -1.003000000
C    -5.046000000    -2.265000000    -0.388000000
C    -5.509000000    -2.797000000     0.857000000
H    -6.390000000    -2.427000000     1.374000000
C    -4.736000000    -3.692000000     1.440000000
O    -5.041000000    -4.176000000     2.691000000
C    -4.110000000    -4.127000000     3.659000000
C    -3.646000000    -2.893000000     4.126000000
H    -4.016000000    -1.987000000     3.652000000
C    -3.613000000    -5.291000000     4.144000000
H    -4.045000000    -6.226000000     3.797000000
C    -2.687000000    -5.347000000     5.174000000
H    -2.471000000    -6.326000000     5.594000000
C    -2.270000000    -4.103000000     5.747000000
H    -1.521000000    -4.035000000     6.532000000
C    -2.815000000    -2.892000000     5.256000000
O    -2.391000000    -1.676000000     5.705000000
C    -1.160000000    -1.081000000     5.403000000
C    -0.903000000     0.168000000     5.959000000
H    -1.623000000     0.621000000     6.636000000
C     0.164000000     0.949000000     5.517000000
O     0.238000000     2.229000000     5.995000000
C     1.328000000     2.965000000     5.919000000
C     2.319000000     2.845000000     6.933000000
H     2.253000000     2.105000000     7.726000000
C     3.326000000     3.824000000     7.009000000
H     4.060000000     3.875000000     7.810000000
C     3.434000000     4.724000000     5.947000000
H     4.238000000     5.456000000     5.948000000
C     2.545000000     4.719000000     4.915000000
C     1.465000000     3.923000000     4.938000000
H     0.681000000     4.101000000     4.207000000
C    -1.562000000     0.658000000     2.048000000
H    -2.139000000     0.563000000     2.964000000
C    -0.878000000    -0.400000000     1.452000000
H    -0.870000000    -1.330000000     2.014000000
C    -0.254000000    -0.165000000     0.256000000
H     0.252000000    -1.021000000    -0.257000000
C    -0.304000000     1.059000000    -0.354000000
H     0.163000000     1.208000000    -1.324000000
C    -1.022000000     2.104000000     0.216000000
H    -1.158000000     3.062000000    -0.278000000
C    -1.643000000     1.932000000     1.393000000
C    -2.374000000     3.067000000     1.978000000
O    -2.311000000     4.182000000     1.467000000
O    -2.946000000     3.009000000     3.039000000
O    -7.526000000     4.852000000     2.032000000
H    -6.676000000     4.913000000     2.468000000
H    -7.509000000     4.001000000     1.593000000
O    -4.383000000     8.080000000    -1.712000000
H    -4.919000000     7.403000000    -2.125000000
H    -4.131000000     7.705000000    -0.868000000
O    -1.330000000     4.424000000     8.355000000
H    -1.834000000     5.221000000     8.518000000
H    -1.585000000     4.155000000     7.473000000
O    -1.500000000     5.834000000     3.707000000
H    -1.797000000     6.599000000     3.214000000
H    -1.538000000     5.114000000     3.078000000
O    -0.677000000     6.677000000     6.176000000
H    -1.042000000     6.256000000     5.398000000
H    -1.442000000     6.972000000     6.670000000
O    -7.472000000     2.361000000     0.223000000
H    -7.970000000     1.821000000    -0.391000000
H    -7.021000000     2.999000000    -0.330000000
O    -2.908000000     3.990000000     6.087000000
H    -3.611000000     4.592000000     5.841000000
H    -2.570000000     3.663000000     5.253000000
O    -4.974000000     1.360000000     4.486000000
H    -4.186000000     1.583000000     3.990000000
H    -5.595000000     1.054000000     3.825000000
O    -5.945000000    -0.747000000     6.127000000
H    -5.716000000     0.057000000     5.660000000
H    -5.318000000    -0.790000000     6.849000000
O    -2.832000000     6.888000000     0.762000000
H    -2.081000000     7.006000000     0.181000000
H    -2.787000000     5.969000000     1.028000000
O    -4.389000000     0.941000000     0.112000000
H    -3.774000000     0.403000000    -0.386000000
H    -5.009000000     0.314000000     0.484000000
O    -6.291000000     4.112000000    -1.829000000
H    -5.530000000     4.021000000    -1.255000000
H    -6.057000000     4.822000000    -2.426000000
O    -3.683000000     8.418000000     5.729000000
H    -3.938000000     7.496000000     5.711000000
H    -3.393000000     8.569000000     6.629000000
O    -4.155000000     3.738000000    -0.204000000
H    -3.364000000     3.897000000     0.312000000
H    -4.312000000     2.798000000    -0.118000000
O    -4.932000000     5.991000000     5.372000000
H    -5.712000000     6.488000000     5.620000000
H    -5.065000000     5.782000000     4.448000000
O    -2.383000000     9.242000000     3.402000000
H    -3.124000000     9.027000000     2.836000000
H    -2.665000000     8.978000000     4.278000000
O    -6.925000000     0.903000000     2.490000000
H    -6.806000000     1.562000000     1.807000000
H    -7.731000000     1.163000000     2.936000000
O    -5.155000000     3.114000000     7.002000000
H    -4.415000000     3.710000000     7.118000000
H    -4.965000000     2.654000000     6.184000000
O    -4.556000000     5.154000000     2.867000000
H    -4.070000000     4.365000000     3.105000000
H    -4.272000000     5.350000000     1.974000000
