215
-1444.20121
C    -3.095000000    -0.533000000    -4.054000000
H    -2.909000000    -1.599000000    -3.956000000
C    -2.046000000     0.356000000    -4.284000000
C    -2.386000000     1.765000000    -4.396000000
H    -1.638000000     2.531000000    -4.582000000
C    -0.609000000    -0.199000000    -4.307000000
O    -0.497000000    -1.567000000    -4.673000000
H    -0.150000000    -0.087000000    -3.313000000
O     0.293000000     0.634000000    -5.089000000
C     1.580000000     0.891000000    -4.595000000
C     1.563000000     2.108000000    -3.867000000
H     0.763000000     2.837000000    -3.969000000
C     2.602000000     2.420000000    -3.043000000
O     2.577000000     3.523000000    -2.286000000
C     3.686000000     1.502000000    -2.864000000
C     4.888000000     1.866000000    -1.977000000
H     5.848000000     1.470000000    -2.315000000
C     4.656000000     1.590000000    -0.514000000
C     5.015000000     0.338000000    -0.012000000
H     5.675000000    -0.256000000    -0.640000000
H     5.066000000     2.936000000    -2.102000000
C     3.623000000     0.200000000    -3.439000000
H     4.426000000    -0.467000000    -3.135000000
C     2.552000000    -0.053000000    -4.251000000
C     2.443000000    -1.476000000    -4.779000000
H     3.463000000    -1.845000000    -4.905000000
H     1.952000000    -1.517000000    -5.754000000
C     1.613000000    -2.421000000    -3.887000000
C     2.311000000    -3.131000000    -2.866000000
H     3.397000000    -3.097000000    -2.875000000
C     0.230000000    -2.519000000    -3.872000000
C    -0.444000000    -3.365000000    -3.055000000
H    -1.530000000    -3.385000000    -3.082000000
C     0.306000000    -4.071000000    -2.085000000
O    -0.381000000    -4.922000000    -1.255000000
C    -0.404000000    -4.506000000     0.159000000
C    -1.741000000    -4.658000000     0.777000000
C    -1.854000000    -4.725000000     2.187000000
H    -1.039000000    -4.637000000     2.900000000
C    -2.817000000    -4.472000000    -0.022000000
H    -2.703000000    -4.197000000    -1.067000000
O     0.718000000    -5.055000000     1.008000000
H    -0.249000000    -3.419000000     0.084000000
C     1.716000000    -4.045000000    -2.064000000
C     2.611000000    -4.863000000    -1.112000000
H     3.594000000    -5.117000000    -1.516000000
H     2.123000000    -5.803000000    -0.844000000
C     2.713000000    -4.084000000     0.193000000
C     3.732000000    -3.188000000     0.359000000
H     4.486000000    -3.116000000    -0.421000000
C     1.781000000    -4.270000000     1.217000000
C     1.856000000    -3.430000000     2.331000000
H     1.130000000    -3.583000000     3.126000000
C     2.909000000    -2.564000000     2.490000000
O     2.975000000    -1.764000000     3.604000000
C     2.505000000    -0.423000000     3.434000000
C     1.485000000     0.126000000     4.503000000
C     0.535000000    -0.735000000     5.015000000
H     0.606000000    -1.778000000     4.716000000
C     1.581000000     1.423000000     4.998000000
H     2.385000000     2.101000000     4.723000000
O     3.622000000     0.474000000     3.425000000
H     2.026000000    -0.462000000     2.445000000
C     3.904000000    -2.470000000     1.564000000
C     5.074000000    -1.547000000     1.686000000
H     5.908000000    -1.929000000     1.092000000
H     5.428000000    -1.558000000     2.719000000
C     4.704000000    -0.091000000     1.293000000
C     4.047000000     0.846000000     2.168000000
C     3.711000000     2.104000000     1.692000000
H     3.153000000     2.726000000     2.387000000
C     3.992000000     2.490000000     0.396000000
O     3.326000000     3.578000000    -0.127000000
C     2.107000000     3.328000000    -0.947000000
H     1.616000000     2.349000000    -0.843000000
C     1.042000000     4.358000000    -0.618000000
C     0.516000000     5.292000000    -1.529000000
H     0.890000000     5.254000000    -2.549000000
C     0.542000000     4.360000000     0.704000000
H     1.061000000     3.709000000     1.402000000
C    -0.482000000     5.196000000     1.092000000
O    -0.905000000     5.142000000     2.350000000
C    -0.997000000     6.156000000     0.232000000
H    -1.934000000     6.663000000     0.447000000
C    -0.501000000     6.190000000    -1.098000000
O    -1.208000000     6.908000000    -1.965000000
C    -1.834000000     6.307000000    -3.058000000
C    -2.584000000     5.166000000    -2.956000000
H    -2.843000000     4.739000000    -1.991000000
C    -1.526000000     6.810000000    -4.353000000
H    -1.041000000     7.781000000    -4.319000000
C    -1.990000000     6.218000000    -5.509000000
H    -1.700000000     6.677000000    -6.451000000
C    -2.896000000     5.091000000    -5.424000000
H    -3.368000000     4.718000000    -6.330000000
C    -3.116000000     4.570000000    -4.137000000
O    -4.027000000     3.524000000    -4.114000000
C    -3.672000000     2.161000000    -4.105000000
C    -4.626000000     1.218000000    -3.821000000
H    -5.663000000     1.487000000    -3.635000000
C    -4.357000000    -0.090000000    -3.854000000
O    -5.506000000    -0.968000000    -3.737000000
C    -5.461000000    -2.277000000    -3.370000000
C    -5.402000000    -2.563000000    -1.979000000
H    -5.340000000    -1.723000000    -1.291000000
C    -5.548000000    -3.293000000    -4.361000000
H    -5.333000000    -3.037000000    -5.395000000
C    -5.516000000    -4.632000000    -3.911000000
H    -5.520000000    -5.478000000    -4.594000000
C    -5.434000000    -4.881000000    -2.493000000
H    -5.541000000    -5.924000000    -2.206000000
C    -5.330000000    -3.917000000    -1.564000000
O    -5.282000000    -4.316000000    -0.208000000
C    -4.075000000    -4.543000000     0.564000000
C    -4.222000000    -4.798000000     1.949000000
H    -5.171000000    -4.995000000     2.442000000
C    -3.156000000    -4.724000000     2.763000000
O    -3.211000000    -4.913000000     4.146000000
C    -2.352000000    -4.305000000     5.034000000
C    -2.246000000    -2.906000000     5.181000000
H    -2.899000000    -2.178000000     4.707000000
C    -1.560000000    -5.183000000     5.871000000
H    -1.643000000    -6.262000000     5.775000000
C    -0.626000000    -4.662000000     6.798000000
H     0.007000000    -5.324000000     7.384000000
C    -0.519000000    -3.270000000     6.930000000
H     0.280000000    -2.832000000     7.523000000
C    -1.400000000    -2.399000000     6.186000000
O    -1.388000000    -1.070000000     6.489000000
C    -0.406000000    -0.320000000     5.961000000
C    -0.390000000     1.017000000     6.347000000
H    -1.079000000     1.495000000     7.038000000
C     0.624000000     1.887000000     5.864000000
O     0.638000000     3.189000000     6.263000000
C     0.675000000     4.226000000     5.402000000
C     1.501000000     5.323000000     5.683000000
H     1.976000000     5.446000000     6.653000000
C     1.625000000     6.387000000     4.808000000
H     2.311000000     7.225000000     4.908000000
C     0.948000000     6.272000000     3.592000000
H     1.234000000     7.014000000     2.851000000
C    -0.023000000     5.285000000     3.429000000
C    -0.185000000     4.296000000     4.311000000
H    -0.988000000     3.568000000     4.235000000
C    -2.292000000    -0.811000000     0.630000000
H    -3.151000000    -1.414000000     0.348000000
C    -1.138000000    -0.923000000    -0.202000000
H    -1.127000000    -1.644000000    -1.015000000
C    -0.095000000    -0.092000000     0.077000000
H     0.836000000    -0.240000000    -0.513000000
C    -0.136000000     0.853000000     1.087000000
H     0.690000000     1.545000000     1.223000000
C    -1.278000000     0.976000000     1.901000000
H    -1.310000000     1.790000000     2.621000000
C    -2.337000000     0.132000000     1.674000000
C    -3.550000000     0.293000000     2.411000000
O    -3.741000000     1.391000000     2.941000000
O    -4.504000000    -0.413000000     2.240000000
O    -4.290000000     3.069000000     4.956000000
H    -4.805000000     2.510000000     5.539000000
H    -3.956000000     2.472000000     4.286000000
O    -8.407000000    -1.055000000     1.446000000
H    -7.921000000    -0.491000000     0.844000000
H    -8.620000000    -0.487000000     2.186000000
O    -6.767000000     1.814000000     5.798000000
H    -7.141000000     1.752000000     4.919000000
H    -6.388000000     0.950000000     5.958000000
O    -4.460000000     2.623000000    -0.165000000
H    -3.703000000     2.747000000    -0.738000000
H    -4.271000000     3.164000000     0.602000000
O    -3.828000000     3.800000000     2.093000000
H    -3.545000000     4.367000000     2.810000000
H    -3.451000000     2.945000000     2.302000000
O    -9.055000000     0.610000000     3.630000000
H    -9.645000000     0.902000000     4.325000000
H    -8.567000000     1.395000000     3.383000000
O    -6.291000000     1.924000000     2.684000000
H    -5.473000000     1.438000000     2.788000000
H    -6.477000000     1.881000000     1.745000000
O    -6.903000000    -0.995000000     7.042000000
H    -6.772000000    -1.916000000     6.817000000
H    -7.841000000    -0.849000000     6.919000000
O    -1.706000000     2.520000000    -0.870000000
H    -1.090000000     3.146000000    -0.490000000
H    -1.678000000     1.768000000    -0.278000000
O    -6.567000000     4.980000000     2.676000000
H    -6.644000000     5.052000000     1.724000000
H    -5.724000000     4.549000000     2.816000000
O    -4.690000000     0.084000000     7.884000000
H    -5.411000000    -0.535000000     8.000000000
H    -4.563000000     0.128000000     6.936000000
O    -5.631000000     5.843000000     0.100000000
H    -4.793000000     5.888000000     0.560000000
H    -5.885000000     6.758000000    -0.024000000
O    -2.844000000     4.507000000     7.100000000
H    -3.295000000     3.977000000     6.442000000
H    -3.515000000     4.693000000     7.757000000
O    -8.618000000     3.440000000     3.661000000
H    -8.759000000     3.749000000     4.556000000
H    -7.842000000     3.914000000     3.363000000
O    -4.694000000     0.010000000     5.010000000
H    -4.191000000     0.460000000     4.331000000
H    -5.173000000    -0.673000000     4.540000000
O    -6.347000000    -2.640000000     2.421000000
H    -5.720000000    -1.920000000     2.489000000
H    -7.094000000    -2.264000000     1.955000000
O    -3.434000000     5.970000000     4.533000000
H    -4.153000000     6.287000000     5.080000000
H    -2.785000000     5.642000000     5.155000000
O    -7.660000000    -3.255000000     4.903000000
H    -7.308000000    -3.272000000     4.012000000
H    -6.908000000    -3.455000000     5.461000000
O    -6.398000000     0.327000000     0.112000000
H    -5.690000000    -0.040000000     0.642000000
H    -5.987000000     1.039000000    -0.378000000
