215
-1477.48438
C    -3.932000000    -1.238000000    -3.604000000
H    -3.438000000    -2.206000000    -3.644000000
C    -3.164000000    -0.047000000    -3.710000000
C    -3.793000000     1.170000000    -3.560000000
H    -3.151000000     2.047000000    -3.557000000
C    -1.636000000    -0.150000000    -3.900000000
O    -1.338000000    -1.334000000    -4.688000000
H    -1.315000000    -0.184000000    -2.849000000
O    -1.106000000     0.970000000    -4.574000000
C     0.142000000     1.493000000    -4.328000000
C     0.180000000     2.708000000    -3.519000000
H    -0.791000000     3.177000000    -3.381000000
C     1.333000000     3.247000000    -3.063000000
O     1.186000000     4.349000000    -2.215000000
C     2.550000000     2.627000000    -3.345000000
C     3.840000000     3.107000000    -2.763000000
H     4.672000000     2.732000000    -3.363000000
C     3.949000000     2.616000000    -1.373000000
C     4.608000000     1.388000000    -1.168000000
H     5.007000000     0.780000000    -1.976000000
H     3.850000000     4.184000000    -2.585000000
C     2.580000000     1.447000000    -4.135000000
H     3.550000000     0.994000000    -4.324000000
C     1.375000000     0.820000000    -4.603000000
C     1.369000000    -0.595000000    -5.323000000
H     2.372000000    -0.712000000    -5.738000000
H     0.739000000    -0.472000000    -6.206000000
C     1.031000000    -1.781000000    -4.410000000
C     2.100000000    -2.562000000    -3.877000000
H     3.147000000    -2.276000000    -3.925000000
C    -0.288000000    -2.132000000    -4.222000000
C    -0.557000000    -3.133000000    -3.228000000
H    -1.555000000    -3.344000000    -2.853000000
C     0.527000000    -3.735000000    -2.564000000
O     0.270000000    -4.595000000    -1.551000000
C     0.451000000    -4.173000000    -0.262000000
C    -0.786000000    -4.536000000     0.571000000
C    -0.634000000    -4.609000000     1.974000000
H     0.371000000    -4.648000000     2.386000000
C    -2.056000000    -4.794000000    -0.076000000
H    -2.138000000    -4.628000000    -1.147000000
O     1.658000000    -4.700000000     0.259000000
H     0.480000000    -3.077000000    -0.165000000
C     1.856000000    -3.526000000    -2.918000000
C     3.061000000    -4.204000000    -2.242000000
H     3.879000000    -4.367000000    -2.947000000
H     2.876000000    -5.252000000    -1.999000000
C     3.350000000    -3.467000000    -0.980000000
C     4.322000000    -2.458000000    -0.891000000
H     4.957000000    -2.240000000    -1.746000000
C     2.674000000    -3.784000000     0.253000000
C     2.952000000    -3.110000000     1.440000000
H     2.437000000    -3.321000000     2.373000000
C     3.906000000    -2.120000000     1.479000000
O     3.955000000    -1.430000000     2.647000000
C     3.386000000    -0.117000000     2.816000000
C     2.722000000     0.196000000     4.171000000
C     1.977000000    -0.820000000     4.786000000
H     1.898000000    -1.768000000     4.261000000
C     2.788000000     1.492000000     4.675000000
H     3.308000000     2.279000000     4.135000000
O     4.319000000     0.921000000     2.536000000
H     2.536000000    -0.084000000     2.118000000
C     4.558000000    -1.711000000     0.315000000
C     5.533000000    -0.584000000     0.313000000
H     6.136000000    -0.551000000    -0.597000000
H     6.226000000    -0.659000000     1.153000000
C     4.746000000     0.752000000     0.151000000
C     4.344000000     1.507000000     1.273000000
C     3.653000000     2.723000000     1.036000000
H     3.170000000     3.254000000     1.852000000
C     3.453000000     3.275000000    -0.284000000
O     2.594000000     4.321000000    -0.353000000
C     1.269000000     3.994000000    -0.799000000
H     1.171000000     2.899000000    -0.768000000
C     0.053000000     4.576000000    -0.016000000
C    -1.280000000     4.577000000    -0.447000000
H    -1.462000000     4.113000000    -1.413000000
C     0.229000000     5.029000000     1.295000000
H     1.265000000     4.942000000     1.614000000
C    -0.751000000     5.603000000     2.024000000
O    -0.553000000     6.057000000     3.317000000
C    -2.022000000     5.786000000     1.482000000
H    -2.808000000     6.227000000     2.089000000
C    -2.328000000     5.143000000     0.273000000
O    -3.687000000     5.167000000    -0.035000000
C    -3.988000000     5.021000000    -1.393000000
C    -4.906000000     3.977000000    -1.787000000
H    -5.362000000     3.356000000    -1.021000000
C    -3.456000000     5.797000000    -2.454000000
H    -2.921000000     6.684000000    -2.124000000
C    -3.765000000     5.457000000    -3.794000000
H    -3.407000000     6.120000000    -4.578000000
C    -4.642000000     4.386000000    -4.118000000
H    -4.826000000     4.019000000    -5.125000000
C    -5.174000000     3.623000000    -3.105000000
O    -5.826000000     2.456000000    -3.294000000
C    -5.189000000     1.287000000    -3.370000000
C    -5.919000000     0.077000000    -3.238000000
H    -7.002000000     0.018000000    -3.168000000
C    -5.288000000    -1.149000000    -3.383000000
O    -6.122000000    -2.197000000    -3.156000000
C    -5.722000000    -3.442000000    -2.740000000
C    -5.179000000    -3.530000000    -1.481000000
H    -4.976000000    -2.651000000    -0.875000000
C    -5.831000000    -4.499000000    -3.666000000
H    -6.267000000    -4.316000000    -4.645000000
C    -5.434000000    -5.723000000    -3.188000000
H    -5.451000000    -6.597000000    -3.834000000
C    -4.771000000    -5.909000000    -1.923000000
H    -4.466000000    -6.879000000    -1.540000000
C    -4.701000000    -4.838000000    -1.057000000
O    -4.378000000    -4.947000000     0.257000000
C    -3.180000000    -4.972000000     0.765000000
C    -2.990000000    -5.105000000     2.125000000
H    -3.872000000    -5.352000000     2.710000000
C    -1.742000000    -4.946000000     2.738000000
O    -1.757000000    -4.959000000     4.101000000
C    -0.723000000    -4.510000000     4.885000000
C    -0.645000000    -3.231000000     5.287000000
H    -1.193000000    -2.476000000     4.729000000
C    -0.021000000    -5.464000000     5.589000000
H    -0.249000000    -6.486000000     5.298000000
C     0.855000000    -5.116000000     6.636000000
H     1.432000000    -5.877000000     7.156000000
C     1.073000000    -3.764000000     6.869000000
H     1.832000000    -3.459000000     7.585000000
C     0.283000000    -2.786000000     6.250000000
O     0.457000000    -1.461000000     6.587000000
C     1.274000000    -0.554000000     5.909000000
C     1.200000000     0.773000000     6.348000000
H     0.600000000     1.021000000     7.220000000
C     2.039000000     1.786000000     5.809000000
O     1.918000000     3.062000000     6.290000000
C     1.846000000     4.216000000     5.434000000
C     3.034000000     4.931000000     5.167000000
H     3.985000000     4.629000000     5.599000000
C     2.953000000     6.145000000     4.502000000
H     3.876000000     6.694000000     4.338000000
C     1.763000000     6.494000000     3.850000000
H     1.724000000     7.382000000     3.225000000
C     0.609000000     5.673000000     4.024000000
C     0.604000000     4.575000000     4.868000000
H    -0.353000000     4.073000000     4.982000000
C    -1.192000000    -0.583000000     2.361000000
H    -1.845000000    -1.433000000     2.542000000
C    -0.342000000    -0.615000000     1.256000000
H    -0.349000000    -1.474000000     0.590000000
C     0.515000000     0.399000000     0.873000000
H     1.110000000     0.263000000    -0.020000000
C     0.508000000     1.563000000     1.698000000
H     1.100000000     2.441000000     1.454000000
C    -0.355000000     1.614000000     2.768000000
H    -0.462000000     2.533000000     3.338000000
C    -1.187000000     0.593000000     3.167000000
C    -2.066000000     0.816000000     4.483000000
O    -2.123000000     1.939000000     4.915000000
O    -2.737000000    -0.142000000     4.891000000
O    -1.971000000     3.044000000     7.337000000
H    -1.756000000     2.631000000     6.501000000
H    -1.814000000     2.361000000     7.990000000
O    -5.509000000     1.517000000     9.181000000
H    -5.320000000     0.929000000     8.450000000
H    -6.393000000     1.278000000     9.459000000
O    -4.884000000    -0.894000000     7.468000000
H    -5.097000000    -1.816000000     7.324000000
H    -3.927000000    -0.866000000     7.464000000
O    -4.380000000    -0.389000000     0.663000000
H    -4.334000000     0.421000000     1.170000000
H    -5.266000000    -0.717000000     0.816000000
O    -3.442000000     3.955000000     4.029000000
H    -3.017000000     4.557000000     4.641000000
H    -3.008000000     3.115000000     4.178000000
O    -3.756000000    -4.281000000     7.058000000
H    -2.870000000    -4.520000000     6.787000000
H    -4.176000000    -3.971000000     6.256000000
O    -5.703000000     0.412000000     5.389000000
H    -5.612000000     0.044000000     6.268000000
H    -4.841000000     0.295000000     4.990000000
O     1.169000000     1.839000000     9.973000000
H     1.122000000     2.697000000     9.553000000
H     0.340000000     1.416000000     9.748000000
O    -2.412000000    -1.642000000    -0.858000000
H    -3.289000000    -1.257000000    -0.841000000
H    -2.067000000    -1.489000000     0.022000000
O    -4.524000000     1.724000000     2.271000000
H    -5.389000000     1.857000000     2.659000000
H    -3.984000000     2.420000000     2.646000000
O    -5.776000000     3.039000000     5.910000000
H    -5.991000000     2.128000000     5.711000000
H    -5.185000000     3.305000000     5.207000000
O    -0.493000000     5.503000000     7.753000000
H    -1.014000000     4.722000000     7.566000000
H     0.389000000     5.169000000     7.913000000
O    -7.282000000     2.760000000     2.593000000
H    -7.752000000     2.886000000     3.418000000
H    -6.880000000     3.611000000     2.415000000
O    -5.317000000     3.931000000     8.341000000
H    -5.202000000     3.678000000     7.425000000
H    -5.157000000     3.126000000     8.834000000
O    -5.400000000    -3.515000000     4.911000000
H    -5.028000000    -2.957000000     4.228000000
H    -6.223000000    -3.087000000     5.148000000
O    -2.144000000    -0.859000000     7.291000000
H    -1.328000000    -1.350000000     7.199000000
H    -2.301000000    -0.489000000     6.422000000
O    -1.406000000     0.983000000     9.269000000
H    -1.789000000     0.217000000     8.840000000
H    -2.114000000     1.333000000     9.811000000
O    -7.673000000    -0.667000000     3.879000000
H    -6.935000000    -0.270000000     4.341000000
H    -8.325000000    -0.827000000     4.561000000
O    -3.965000000    -1.928000000     3.451000000
H    -3.422000000    -1.334000000     3.970000000
H    -4.179000000    -1.430000000     2.662000000
