215
-1450.30123
C    -4.050000000    -1.090000000    -3.203000000
H    -3.600000000    -2.078000000    -3.262000000
C    -3.311000000     0.034000000    -3.391000000
C    -3.914000000     1.330000000    -3.279000000
H    -3.336000000     2.245000000    -3.383000000
C    -1.821000000     0.015000000    -3.626000000
O    -1.486000000    -1.269000000    -4.283000000
H    -1.261000000     0.059000000    -2.681000000
O    -1.359000000     1.072000000    -4.391000000
C    -0.249000000     1.758000000    -4.005000000
C    -0.240000000     2.931000000    -3.249000000
H    -1.095000000     3.384000000    -2.752000000
C     0.956000000     3.582000000    -2.944000000
O     0.755000000     4.658000000    -2.086000000
C     2.242000000     3.137000000    -3.308000000
C     3.553000000     3.745000000    -2.801000000
H     4.362000000     3.395000000    -3.446000000
C     3.856000000     3.252000000    -1.399000000
C     4.467000000     2.013000000    -1.295000000
H     4.939000000     1.538000000    -2.151000000
H     3.528000000     4.826000000    -2.948000000
C     2.196000000     1.924000000    -4.045000000
H     3.107000000     1.491000000    -4.449000000
C     1.019000000     1.293000000    -4.471000000
C     1.047000000     0.013000000    -5.285000000
H     2.054000000     0.004000000    -5.708000000
H     0.321000000     0.028000000    -6.100000000
C     0.939000000    -1.270000000    -4.386000000
C     2.090000000    -1.964000000    -4.043000000
H     3.056000000    -1.601000000    -4.386000000
C    -0.289000000    -1.878000000    -3.949000000
C    -0.355000000    -3.104000000    -3.407000000
H    -1.283000000    -3.581000000    -3.105000000
C     0.827000000    -3.705000000    -2.908000000
O     0.670000000    -4.734000000    -2.040000000
C     0.776000000    -4.244000000    -0.661000000
C    -0.300000000    -4.813000000     0.244000000
C     0.006000000    -5.281000000     1.520000000
H     1.030000000    -5.131000000     1.854000000
C    -1.623000000    -4.958000000    -0.219000000
H    -1.917000000    -4.742000000    -1.242000000
O     2.120000000    -4.421000000    -0.151000000
H     0.609000000    -3.164000000    -0.787000000
C     2.066000000    -3.082000000    -3.168000000
C     3.333000000    -3.611000000    -2.674000000
H     4.081000000    -3.496000000    -3.460000000
H     3.416000000    -4.676000000    -2.446000000
C     3.626000000    -2.957000000    -1.342000000
C     4.499000000    -1.863000000    -1.237000000
H     5.091000000    -1.610000000    -2.113000000
C     3.031000000    -3.414000000    -0.189000000
C     3.308000000    -2.828000000     1.009000000
H     2.780000000    -3.079000000     1.925000000
C     4.167000000    -1.701000000     1.108000000
O     4.224000000    -1.063000000     2.304000000
C     3.370000000     0.023000000     2.506000000
C     2.632000000    -0.080000000     3.797000000
C     2.211000000    -1.318000000     4.334000000
H     2.414000000    -2.288000000     3.888000000
C     2.546000000     1.065000000     4.612000000
H     2.924000000     2.019000000     4.252000000
O     3.979000000     1.317000000     2.308000000
H     2.575000000    -0.118000000     1.758000000
C     4.704000000    -1.161000000    -0.077000000
C     5.510000000     0.129000000    -0.001000000
H     6.261000000     0.123000000    -0.794000000
H     6.035000000     0.157000000     0.956000000
C     4.637000000     1.409000000    -0.096000000
C     4.067000000     1.915000000     1.062000000
C     3.302000000     3.130000000     0.951000000
H     2.837000000     3.573000000     1.828000000
C     3.172000000     3.747000000    -0.286000000
O     2.239000000     4.798000000    -0.328000000
C     0.923000000     4.327000000    -0.701000000
H     0.873000000     3.242000000    -0.531000000
C    -0.200000000     5.021000000     0.130000000
C    -1.547000000     5.180000000    -0.299000000
H    -1.804000000     4.929000000    -1.325000000
C     0.041000000     5.260000000     1.477000000
H     1.026000000     4.934000000     1.802000000
C    -0.947000000     5.524000000     2.397000000
O    -0.731000000     5.587000000     3.759000000
C    -2.273000000     5.580000000     1.927000000
H    -3.078000000     5.793000000     2.625000000
C    -2.569000000     5.459000000     0.568000000
O    -3.884000000     5.493000000     0.143000000
C    -4.363000000     5.221000000    -1.149000000
C    -4.985000000     3.952000000    -1.335000000
H    -4.951000000     3.146000000    -0.606000000
C    -4.216000000     6.126000000    -2.254000000
H    -3.653000000     7.053000000    -2.188000000
C    -4.777000000     5.867000000    -3.547000000
H    -4.663000000     6.643000000    -4.300000000
C    -5.443000000     4.629000000    -3.693000000
H    -5.827000000     4.255000000    -4.638000000
C    -5.464000000     3.705000000    -2.643000000
O    -6.020000000     2.514000000    -2.965000000
C    -5.304000000     1.384000000    -3.070000000
C    -6.028000000     0.198000000    -2.944000000
H    -7.103000000     0.210000000    -2.781000000
C    -5.381000000    -0.985000000    -2.868000000
O    -6.104000000    -2.162000000    -2.814000000
C    -5.635000000    -3.393000000    -2.414000000
C    -4.915000000    -3.659000000    -1.217000000
H    -4.716000000    -2.890000000    -0.474000000
C    -5.923000000    -4.505000000    -3.298000000
H    -6.555000000    -4.448000000    -4.181000000
C    -5.422000000    -5.776000000    -2.973000000
H    -5.589000000    -6.596000000    -3.667000000
C    -4.760000000    -6.008000000    -1.804000000
H    -4.505000000    -7.034000000    -1.550000000
C    -4.613000000    -4.991000000    -0.915000000
O    -4.013000000    -5.280000000     0.325000000
C    -2.632000000    -5.343000000     0.658000000
C    -2.275000000    -5.822000000     1.939000000
H    -3.030000000    -6.222000000     2.612000000
C    -0.976000000    -5.833000000     2.314000000
O    -0.597000000    -6.297000000     3.574000000
C     0.302000000    -5.709000000     4.461000000
C     0.161000000    -4.399000000     4.751000000
H    -0.700000000    -3.841000000     4.393000000
C     1.356000000    -6.443000000     4.850000000
H     1.337000000    -7.494000000     4.575000000
C     2.429000000    -5.793000000     5.531000000
H     3.247000000    -6.408000000     5.897000000
C     2.291000000    -4.456000000     5.824000000
H     2.986000000    -3.878000000     6.427000000
C     1.118000000    -3.775000000     5.539000000
O     0.863000000    -2.497000000     5.976000000
C     1.406000000    -1.322000000     5.476000000
C     1.131000000    -0.116000000     6.156000000
H     0.468000000    -0.196000000     7.014000000
C     1.761000000     1.055000000     5.734000000
O     1.394000000     2.201000000     6.451000000
C     1.422000000     3.458000000     5.832000000
C     2.412000000     4.360000000     6.211000000
H     3.258000000     4.005000000     6.794000000
C     2.202000000     5.721000000     5.917000000
H     2.946000000     6.446000000     6.238000000
C     1.132000000     6.110000000     5.128000000
H     1.180000000     7.169000000     4.890000000
C     0.333000000     5.166000000     4.537000000
C     0.423000000     3.820000000     4.894000000
H    -0.302000000     3.052000000     4.637000000
C    -0.797000000    -1.107000000     2.854000000
H    -1.054000000    -1.720000000     3.714000000
C     0.033000000    -1.580000000     1.850000000
H     0.370000000    -2.604000000     1.986000000
C     0.290000000    -0.772000000     0.701000000
H     0.641000000    -1.087000000    -0.249000000
C    -0.230000000     0.502000000     0.748000000
H    -0.177000000     1.153000000    -0.121000000
C    -0.910000000     1.093000000     1.821000000
H    -1.234000000     2.130000000     1.793000000
C    -1.291000000     0.202000000     2.873000000
C    -2.298000000     0.630000000     3.907000000
O    -2.302000000     1.800000000     4.173000000
O    -3.061000000    -0.150000000     4.431000000
O    -2.674000000     2.835000000     6.603000000
H    -2.174000000     2.267000000     6.017000000
H    -3.580000000     2.743000000     6.310000000
O    -8.768000000     0.568000000     5.195000000
H    -8.105000000    -0.008000000     4.816000000
H    -9.588000000     0.083000000     5.103000000
O    -2.898000000     2.720000000    10.042000000
H    -3.329000000     1.871000000     9.939000000
H    -2.750000000     3.023000000     9.146000000
O    -3.280000000     0.041000000     9.202000000
H    -3.576000000    -0.753000000     9.648000000
H    -2.898000000    -0.273000000     8.383000000
O    -4.666000000     0.166000000     0.643000000
H    -4.839000000     0.872000000     1.266000000
H    -5.474000000     0.092000000     0.135000000
O    -4.242000000     4.516000000     4.652000000
H    -4.360000000     5.462000000     4.742000000
H    -3.479000000     4.318000000     5.196000000
O    -5.219000000     1.009000000     5.117000000
H    -5.488000000     0.570000000     5.925000000
H    -4.383000000     0.603000000     4.890000000
O    -2.673000000    -1.013000000    -0.604000000
H    -3.417000000    -0.485000000    -0.315000000
H    -1.930000000    -0.671000000    -0.107000000
O    -4.780000000     2.511000000     2.537000000
H    -4.438000000     3.233000000     3.064000000
H    -5.206000000     1.934000000     3.171000000
O    -7.239000000     3.339000000     5.265000000
H    -7.899000000     2.656000000     5.145000000
H    -6.405000000     2.896000000     5.109000000
O    -1.625000000     5.203000000     8.343000000
H    -1.981000000     4.397000000     7.971000000
H    -0.783000000     4.943000000     8.717000000
O    -7.552000000     3.283000000     2.054000000
H    -6.665000000     2.997000000     2.275000000
H    -7.587000000     4.196000000     2.337000000
O    -5.174000000     3.343000000     7.843000000
H    -5.622000000     2.947000000     7.096000000
H    -5.590000000     2.946000000     8.609000000
O    -4.210000000    -4.049000000     4.774000000
H    -4.395000000    -3.881000000     3.849000000
H    -4.892000000    -3.570000000     5.245000000
O    -3.447000000    -4.561000000     7.398000000
H    -2.531000000    -4.794000000     7.551000000
H    -3.510000000    -4.447000000     6.450000000
O    -2.856000000    -1.626000000     6.694000000
H    -2.564000000    -2.422000000     6.250000000
H    -3.293000000    -1.118000000     6.010000000
O    -7.302000000    -1.798000000     3.003000000
H    -6.430000000    -1.505000000     2.742000000
H    -7.388000000    -2.669000000     2.615000000
O    -6.473000000    -2.556000000     5.707000000
H    -7.329000000    -2.969000000     5.592000000
H    -6.353000000    -2.031000000     4.916000000
O    -4.667000000    -1.685000000     2.502000000
H    -3.852000000    -1.706000000     3.003000000
H    -4.547000000    -0.969000000     1.878000000
