215
-1446.83847
C    -4.422000000    -1.186000000    -3.542000000
H    -4.092000000    -2.024000000    -4.151000000
C    -3.646000000    -0.013000000    -3.409000000
C    -4.112000000     1.005000000    -2.609000000
H    -3.400000000     1.726000000    -2.215000000
C    -2.151000000     0.102000000    -3.955000000
O    -1.711000000    -1.043000000    -4.795000000
H    -1.478000000     0.004000000    -3.091000000
O    -1.911000000     1.425000000    -4.474000000
C    -0.731000000     1.928000000    -4.252000000
C    -0.849000000     2.986000000    -3.316000000
H    -1.811000000     3.377000000    -2.995000000
C     0.294000000     3.491000000    -2.835000000
O     0.141000000     4.452000000    -1.883000000
C     1.580000000     2.984000000    -3.268000000
C     2.909000000     3.580000000    -2.857000000
H     3.687000000     3.417000000    -3.606000000
C     3.413000000     3.119000000    -1.543000000
C     4.307000000     2.019000000    -1.594000000
H     4.721000000     1.632000000    -2.522000000
H     2.660000000     4.642000000    -2.792000000
C     1.670000000     2.008000000    -4.252000000
H     2.665000000     1.720000000    -4.582000000
C     0.478000000     1.432000000    -4.751000000
C     0.649000000     0.201000000    -5.620000000
H     1.580000000     0.401000000    -6.154000000
H    -0.168000000     0.150000000    -6.343000000
C     0.652000000    -1.087000000    -4.837000000
C     1.776000000    -1.714000000    -4.456000000
H     2.677000000    -1.166000000    -4.720000000
C    -0.535000000    -1.673000000    -4.434000000
C    -0.527000000    -2.724000000    -3.530000000
H    -1.515000000    -3.046000000    -3.210000000
C     0.618000000    -3.339000000    -3.108000000
O     0.512000000    -4.275000000    -2.151000000
C     0.763000000    -3.984000000    -0.809000000
C    -0.335000000    -4.594000000     0.121000000
C     0.069000000    -4.930000000     1.419000000
H     1.134000000    -4.855000000     1.626000000
C    -1.664000000    -4.477000000    -0.138000000
H    -1.905000000    -4.041000000    -1.104000000
O     2.091000000    -4.455000000    -0.548000000
H     0.773000000    -2.893000000    -0.669000000
C     1.803000000    -2.784000000    -3.587000000
C     3.083000000    -3.448000000    -3.124000000
H     3.877000000    -3.251000000    -3.848000000
H     2.998000000    -4.532000000    -3.017000000
C     3.574000000    -2.962000000    -1.719000000
C     4.431000000    -1.849000000    -1.611000000
H     4.829000000    -1.348000000    -2.490000000
C     3.093000000    -3.494000000    -0.520000000
C     3.412000000    -2.977000000     0.746000000
H     2.925000000    -3.415000000     1.613000000
C     4.215000000    -1.838000000     0.767000000
O     4.362000000    -1.175000000     2.019000000
C     3.503000000    -0.018000000     2.267000000
C     2.757000000    -0.133000000     3.589000000
C     2.673000000    -1.310000000     4.332000000
H     3.099000000    -2.239000000     3.960000000
C     2.210000000     1.053000000     4.138000000
H     2.345000000     2.028000000     3.678000000
O     4.184000000     1.276000000     2.098000000
H     2.798000000    -0.049000000     1.423000000
C     4.694000000    -1.228000000    -0.391000000
C     5.539000000     0.146000000    -0.352000000
H     6.322000000     0.158000000    -1.112000000
H     6.165000000     0.221000000     0.540000000
C     4.613000000     1.345000000    -0.361000000
C     3.996000000     1.807000000     0.860000000
C     3.228000000     2.985000000     0.869000000
H     2.793000000     3.436000000     1.757000000
C     2.929000000     3.590000000    -0.344000000
O     2.001000000     4.596000000    -0.427000000
C     0.637000000     4.098000000    -0.588000000
H     0.688000000     3.008000000    -0.450000000
C    -0.285000000     4.794000000     0.460000000
C    -1.650000000     4.712000000     0.337000000
H    -2.095000000     4.222000000    -0.525000000
C     0.291000000     5.233000000     1.605000000
H     1.360000000     5.260000000     1.803000000
C    -0.528000000     5.890000000     2.554000000
O    -0.037000000     6.398000000     3.713000000
C    -1.860000000     5.960000000     2.368000000
H    -2.415000000     6.544000000     3.097000000
C    -2.445000000     5.413000000     1.233000000
O    -3.818000000     5.407000000     1.065000000
C    -4.439000000     5.037000000    -0.161000000
C    -4.933000000     3.727000000    -0.269000000
H    -5.021000000     3.068000000     0.591000000
C    -4.381000000     5.820000000    -1.335000000
H    -3.901000000     6.793000000    -1.271000000
C    -5.016000000     5.352000000    -2.496000000
H    -4.866000000     5.971000000    -3.377000000
C    -5.585000000     4.083000000    -2.555000000
H    -6.044000000     3.641000000    -3.436000000
C    -5.518000000     3.283000000    -1.414000000
O    -6.145000000     2.036000000    -1.475000000
C    -5.523000000     1.012000000    -2.235000000
C    -6.245000000    -0.185000000    -2.365000000
H    -7.281000000    -0.302000000    -2.057000000
C    -5.671000000    -1.262000000    -3.060000000
O    -6.289000000    -2.517000000    -3.075000000
C    -5.710000000    -3.663000000    -2.436000000
C    -5.161000000    -3.613000000    -1.160000000
H    -5.202000000    -2.726000000    -0.534000000
C    -5.630000000    -4.835000000    -3.209000000
H    -6.085000000    -4.918000000    -4.193000000
C    -5.003000000    -5.963000000    -2.703000000
H    -5.011000000    -6.912000000    -3.231000000
C    -4.499000000    -5.938000000    -1.333000000
H    -3.917000000    -6.762000000    -0.928000000
C    -4.615000000    -4.735000000    -0.658000000
O    -3.952000000    -4.614000000     0.543000000
C    -2.603000000    -4.799000000     0.823000000
C    -2.184000000    -5.291000000     2.065000000
H    -3.036000000    -5.457000000     2.720000000
C    -0.851000000    -5.369000000     2.394000000
O    -0.510000000    -5.886000000     3.598000000
C     0.631000000    -5.488000000     4.284000000
C     0.729000000    -4.220000000     4.953000000
H    -0.198000000    -3.676000000     5.115000000
C     1.750000000    -6.346000000     4.327000000
H     1.662000000    -7.344000000     3.905000000
C     2.896000000    -5.957000000     4.984000000
H     3.704000000    -6.684000000     5.013000000
C     2.991000000    -4.760000000     5.650000000
H     3.872000000    -4.468000000     6.215000000
C     1.893000000    -3.836000000     5.632000000
O     1.993000000    -2.540000000     6.270000000
C     1.984000000    -1.389000000     5.535000000
C     1.416000000    -0.161000000     6.050000000
H     0.913000000    -0.299000000     7.003000000
C     1.527000000     1.026000000     5.330000000
O     1.008000000     2.173000000     5.891000000
C     1.425000000     3.480000000     5.521000000
C     2.753000000     3.849000000     5.752000000
H     3.412000000     3.135000000     6.241000000
C     3.190000000     5.118000000     5.290000000
H     4.221000000     5.441000000     5.402000000
C     2.273000000     5.997000000     4.661000000
H     2.631000000     6.996000000     4.424000000
C     0.924000000     5.608000000     4.502000000
C     0.514000000     4.392000000     4.984000000
H    -0.498000000     4.026000000     4.830000000
C    -0.606000000    -0.575000000     2.427000000
H    -0.611000000    -1.267000000     3.267000000
C     0.193000000    -0.852000000     1.305000000
H     0.845000000    -1.720000000     1.355000000
C     0.118000000    -0.061000000     0.201000000
H     0.715000000    -0.303000000    -0.650000000
C    -0.687000000     1.059000000     0.148000000
H    -0.638000000     1.687000000    -0.738000000
C    -1.397000000     1.417000000     1.289000000
H    -2.124000000     2.225000000     1.297000000
C    -1.378000000     0.598000000     2.427000000
C    -2.161000000     0.911000000     3.645000000
O    -2.932000000     1.922000000     3.649000000
O    -2.356000000     0.101000000     4.534000000
O    -6.962000000     4.432000000     5.538000000
H    -6.095000000     4.088000000     5.324000000
H    -6.787000000     5.248000000     6.008000000
O    -1.888000000     1.802000000     6.686000000
H    -2.205000000     1.088000000     7.239000000
H    -2.050000000     1.502000000     5.792000000
O    -4.796000000     0.515000000     7.116000000
H    -4.652000000     1.458000000     7.192000000
H    -4.870000000     0.359000000     6.174000000
O    -7.839000000     0.772000000     4.122000000
H    -7.014000000     0.601000000     4.576000000
H    -8.515000000     0.532000000     4.756000000
O    -4.399000000    -0.958000000     9.555000000
H    -3.964000000    -1.810000000     9.525000000
H    -4.355000000    -0.634000000     8.655000000
O    -5.376000000    -0.988000000     1.214000000
H    -4.901000000    -0.856000000     0.393000000
H    -6.280000000    -1.150000000     0.944000000
O    -4.351000000     3.656000000     5.258000000
H    -4.406000000     4.470000000     4.759000000
H    -3.707000000     3.128000000     4.785000000
O    -5.085000000     0.406000000     4.265000000
H    -5.090000000    -0.358000000     3.689000000
H    -4.192000000     0.746000000     4.206000000
O    -4.884000000     5.982000000     3.855000000
H    -4.709000000     5.688000000     2.961000000
H    -5.050000000     6.921000000     3.771000000
O     0.728000000     0.960000000     9.387000000
H     0.548000000     1.810000000     8.985000000
H    -0.130000000     0.643000000     9.670000000
O    -2.993000000    -1.444000000    -0.491000000
H    -2.665000000    -2.099000000     0.125000000
H    -2.655000000    -0.612000000    -0.158000000
O    -6.129000000     2.913000000     2.832000000
H    -5.374000000     2.864000000     3.419000000
H    -6.684000000     2.179000000     3.095000000
O    -1.845000000     4.412000000     7.148000000
H    -2.022000000     3.554000000     6.763000000
H    -1.072000000     4.274000000     7.697000000
O    -3.289000000     6.591000000     5.917000000
H    -2.955000000     5.780000000     6.300000000
H    -3.685000000     6.320000000     5.089000000
O    -4.989000000     3.171000000     7.970000000
H    -4.707000000     3.391000000     7.082000000
H    -5.930000000     3.343000000     7.972000000
O    -3.253000000    -3.765000000     5.722000000
H    -2.979000000    -3.928000000     4.819000000
H    -4.155000000    -4.084000000     5.760000000
O    -1.389000000    -3.392000000     8.304000000
H    -0.648000000    -3.105000000     8.837000000
H    -1.547000000    -2.664000000     7.701000000
O    -2.364000000    -1.252000000     6.741000000
H    -2.923000000    -1.958000000     6.417000000
H    -2.280000000    -0.654000000     5.998000000
O    -3.589000000    -2.148000000     2.668000000
H    -3.271000000    -1.339000000     3.070000000
H    -4.259000000    -1.860000000     2.049000000
