215
-1447.23271
C    -4.036000000    -0.234000000    -2.932000000
H    -3.566000000    -1.213000000    -2.975000000
C    -3.290000000     0.949000000    -3.201000000
C    -3.918000000     2.185000000    -3.033000000
H    -3.417000000     3.119000000    -3.275000000
C    -1.809000000     0.869000000    -3.660000000
O    -1.603000000    -0.241000000    -4.610000000
H    -1.269000000     0.669000000    -2.722000000
O    -1.342000000     2.128000000    -4.181000000
C    -0.076000000     2.599000000    -3.964000000
C     0.023000000     3.678000000    -3.104000000
H    -0.912000000     4.109000000    -2.755000000
C     1.304000000     4.027000000    -2.537000000
O     1.204000000     4.755000000    -1.398000000
C     2.411000000     3.314000000    -2.945000000
C     3.760000000     3.512000000    -2.272000000
H     4.527000000     3.482000000    -3.048000000
C     3.951000000     2.694000000    -1.032000000
C     4.554000000     1.430000000    -1.088000000
H     4.929000000     1.110000000    -2.057000000
H     3.753000000     4.545000000    -1.919000000
C     2.285000000     2.290000000    -3.840000000
H     3.146000000     1.668000000    -4.070000000
C     1.098000000     1.867000000    -4.387000000
C     1.037000000     0.699000000    -5.311000000
H     1.957000000     0.650000000    -5.896000000
H     0.275000000     0.896000000    -6.068000000
C     0.805000000    -0.661000000    -4.647000000
C     1.850000000    -1.464000000    -4.345000000
H     2.847000000    -1.069000000    -4.522000000
C    -0.495000000    -1.077000000    -4.399000000
C    -0.644000000    -2.334000000    -3.796000000
H    -1.663000000    -2.540000000    -3.478000000
C     0.375000000    -3.133000000    -3.459000000
O     0.099000000    -4.219000000    -2.669000000
C     0.194000000    -4.007000000    -1.274000000
C    -0.967000000    -4.552000000    -0.426000000
C    -0.692000000    -4.705000000     0.930000000
H     0.307000000    -4.614000000     1.348000000
C    -2.252000000    -4.669000000    -0.919000000
H    -2.474000000    -4.448000000    -1.960000000
O     1.477000000    -4.581000000    -0.877000000
H     0.190000000    -2.909000000    -1.221000000
C     1.715000000    -2.732000000    -3.736000000
C     2.944000000    -3.492000000    -3.205000000
H     3.784000000    -3.254000000    -3.861000000
H     2.835000000    -4.577000000    -3.269000000
C     3.315000000    -3.207000000    -1.775000000
C     4.339000000    -2.232000000    -1.540000000
H     4.869000000    -1.798000000    -2.384000000
C     2.570000000    -3.755000000    -0.726000000
C     2.982000000    -3.394000000     0.612000000
H     2.546000000    -3.823000000     1.511000000
C     3.976000000    -2.486000000     0.852000000
O     4.127000000    -2.136000000     2.149000000
C     3.489000000    -0.841000000     2.509000000
C     2.890000000    -1.041000000     3.861000000
C     2.746000000    -2.250000000     4.504000000
H     3.048000000    -3.152000000     3.978000000
C     2.338000000     0.127000000     4.478000000
H     2.378000000     1.034000000     3.879000000
O     4.335000000     0.312000000     2.486000000
H     2.674000000    -0.677000000     1.789000000
C     4.599000000    -1.852000000    -0.255000000
C     5.638000000    -0.678000000    -0.115000000
H     6.311000000    -0.585000000    -0.970000000
H     6.223000000    -0.788000000     0.800000000
C     4.911000000     0.652000000     0.073000000
C     4.276000000     1.063000000     1.301000000
C     3.625000000     2.281000000     1.329000000
H     3.053000000     2.577000000     2.205000000
C     3.425000000     3.108000000     0.190000000
O     2.540000000     4.188000000     0.368000000
C     1.198000000     4.054000000    -0.124000000
H     0.985000000     2.993000000    -0.320000000
C     0.193000000     4.675000000     0.859000000
C    -0.989000000     5.137000000     0.382000000
H    -1.126000000     5.072000000    -0.695000000
C     0.495000000     4.707000000     2.235000000
H     1.448000000     4.322000000     2.590000000
C    -0.420000000     5.203000000     3.126000000
O    -0.109000000     5.291000000     4.462000000
C    -1.636000000     5.641000000     2.639000000
H    -2.503000000     5.879000000     3.251000000
C    -1.971000000     5.486000000     1.284000000
O    -3.266000000     5.702000000     0.861000000
C    -3.711000000     5.616000000    -0.397000000
C    -4.428000000     4.506000000    -0.777000000
H    -4.534000000     3.682000000    -0.075000000
C    -3.693000000     6.756000000    -1.217000000
H    -3.220000000     7.692000000    -0.932000000
C    -4.314000000     6.728000000    -2.491000000
H    -4.325000000     7.512000000    -3.244000000
C    -4.981000000     5.549000000    -2.887000000
H    -5.400000000     5.489000000    -3.888000000
C    -5.063000000     4.438000000    -1.987000000
O    -5.843000000     3.418000000    -2.326000000
C    -5.217000000     2.223000000    -2.596000000
C    -5.955000000     1.087000000    -2.337000000
H    -6.949000000     1.133000000    -1.898000000
C    -5.372000000    -0.167000000    -2.477000000
O    -6.217000000    -1.276000000    -2.259000000
C    -5.851000000    -2.559000000    -2.466000000
C    -5.277000000    -3.207000000    -1.402000000
H    -4.814000000    -2.756000000    -0.528000000
C    -6.550000000    -3.247000000    -3.512000000
H    -7.111000000    -2.737000000    -4.291000000
C    -6.402000000    -4.642000000    -3.557000000
H    -6.925000000    -5.117000000    -4.383000000
C    -5.790000000    -5.359000000    -2.462000000
H    -5.518000000    -6.407000000    -2.558000000
C    -5.277000000    -4.596000000    -1.398000000
O    -4.595000000    -5.240000000    -0.406000000
C    -3.287000000    -5.103000000    -0.071000000
C    -2.938000000    -5.423000000     1.225000000
H    -3.672000000    -5.857000000     1.899000000
C    -1.690000000    -5.191000000     1.747000000
O    -1.423000000    -5.231000000     3.133000000
C    -0.233000000    -5.384000000     3.715000000
C     0.113000000    -4.429000000     4.655000000
H    -0.435000000    -3.525000000     4.905000000
C     0.543000000    -6.473000000     3.451000000
H     0.189000000    -7.131000000     2.661000000
C     1.628000000    -6.679000000     4.224000000
H     2.211000000    -7.582000000     4.065000000
C     2.033000000    -5.826000000     5.209000000
H     2.972000000    -6.014000000     5.723000000
C     1.329000000    -4.677000000     5.344000000
O     1.733000000    -3.633000000     6.225000000
C     2.050000000    -2.378000000     5.654000000
C     1.600000000    -1.262000000     6.257000000
H     1.215000000    -1.388000000     7.266000000
C     1.742000000     0.017000000     5.736000000
O     1.406000000     1.153000000     6.519000000
C     1.691000000     2.387000000     5.981000000
C     2.936000000     3.024000000     6.128000000
H     3.661000000     2.513000000     6.757000000
C     3.200000000     4.300000000     5.602000000
H     4.231000000     4.637000000     5.680000000
C     2.187000000     5.017000000     5.019000000
H     2.391000000     6.021000000     4.657000000
C     0.883000000     4.462000000     4.964000000
C     0.643000000     3.145000000     5.434000000
H    -0.321000000     2.651000000     5.339000000
C    -0.411000000    -0.441000000     2.077000000
H    -0.230000000    -1.098000000     2.924000000
C     0.129000000    -0.769000000     0.816000000
H     0.567000000    -1.751000000     0.656000000
C    -0.179000000     0.026000000    -0.269000000
H     0.087000000    -0.211000000    -1.235000000
C    -0.854000000     1.240000000    -0.043000000
H    -0.933000000     1.994000000    -0.822000000
C    -1.288000000     1.581000000     1.214000000
H    -1.838000000     2.517000000     1.267000000
C    -1.134000000     0.719000000     2.277000000
C    -1.956000000     0.970000000     3.532000000
O    -2.736000000     1.914000000     3.564000000
O    -1.851000000     0.240000000     4.538000000
O    -5.897000000     5.784000000     5.888000000
H    -6.106000000     4.922000000     5.530000000
H    -5.006000000     5.693000000     6.227000000
O    -2.490000000     1.472000000     6.592000000
H    -2.363000000     0.938000000     5.808000000
H    -2.527000000     2.371000000     6.266000000
O    -4.414000000    -0.756000000     7.283000000
H    -4.326000000     0.197000000     7.312000000
H    -4.735000000    -0.939000000     6.400000000
O    -7.822000000     0.747000000     0.406000000
H    -6.871000000     0.645000000     0.365000000
H    -8.148000000    -0.131000000     0.608000000
O    -7.259000000     3.170000000     5.201000000
H    -7.219000000     2.506000000     4.513000000
H    -7.377000000     2.670000000     6.010000000
O    -4.479000000     0.162000000     0.823000000
H    -4.347000000    -0.734000000     1.130000000
H    -3.598000000     0.478000000     0.620000000
O    -3.647000000     3.826000000     4.893000000
H    -4.590000000     3.744000000     4.756000000
H    -3.262000000     3.170000000     4.312000000
O    -5.286000000     1.429000000     3.238000000
H    -5.216000000     1.516000000     2.288000000
H    -4.479000000     1.820000000     3.575000000
O    -6.208000000     5.343000000     2.976000000
H    -6.723000000     5.736000000     2.271000000
H    -6.621000000     4.493000000     3.129000000
O    -2.988000000    -2.065000000     1.895000000
H    -2.764000000    -2.985000000     2.031000000
H    -2.162000000    -1.597000000     2.012000000
O    -6.915000000    -2.766000000     3.315000000
H    -6.484000000    -3.617000000     3.405000000
H    -6.204000000    -2.129000000     3.388000000
O    -3.347000000     5.860000000     6.625000000
H    -3.350000000     5.178000000     5.954000000
H    -2.490000000     5.782000000     7.043000000
O    -4.848000000    -3.893000000     6.670000000
H    -4.780000000    -2.938000000     6.692000000
H    -5.790000000    -4.066000000     6.664000000
O    -1.211000000    -4.210000000     7.971000000
H    -0.286000000    -4.458000000     7.993000000
H    -1.237000000    -3.435000000     7.409000000
O    -1.593000000    -1.552000000     7.189000000
H    -2.525000000    -1.399000000     7.342000000
H    -1.339000000    -0.875000000     6.562000000
O    -8.219000000     0.750000000     3.385000000
H    -8.185000000     1.543000000     2.850000000
H    -7.593000000     0.155000000     2.973000000
O    -2.475000000     2.025000000     9.372000000
H    -2.314000000     2.141000000     8.435000000
H    -2.148000000     2.830000000     9.773000000
O    -0.951000000    -0.307000000    10.077000000
H    -1.279000000     0.506000000     9.693000000
H    -1.113000000    -0.971000000     9.407000000
O    -4.622000000    -1.105000000     4.212000000
H    -3.674000000    -1.070000000     4.080000000
H    -4.941000000    -0.267000000     3.877000000
