215
-1442.94422
C    -4.601000000    -0.106000000    -2.652000000
H    -4.271000000    -0.953000000    -3.248000000
C    -3.815000000     1.031000000    -2.550000000
C    -4.273000000     2.123000000    -1.755000000
H    -3.586000000     2.957000000    -1.642000000
C    -2.478000000     1.099000000    -3.237000000
O    -2.424000000     0.340000000    -4.474000000
H    -1.694000000     0.739000000    -2.554000000
O    -2.137000000     2.429000000    -3.625000000
C    -0.902000000     2.893000000    -3.382000000
C    -0.715000000     3.651000000    -2.248000000
H    -1.560000000     3.895000000    -1.609000000
C     0.602000000     3.999000000    -1.858000000
O     0.800000000     4.768000000    -0.755000000
C     1.667000000     3.623000000    -2.686000000
C     3.121000000     3.840000000    -2.300000000
H     3.722000000     3.687000000    -3.199000000
C     3.705000000     2.853000000    -1.310000000
C     4.253000000     1.649000000    -1.706000000
H     4.261000000     1.422000000    -2.769000000
H     3.299000000     4.887000000    -2.049000000
C     1.495000000     2.836000000    -3.838000000
H     2.364000000     2.544000000    -4.422000000
C     0.203000000     2.417000000    -4.124000000
C     0.024000000     1.572000000    -5.304000000
H     0.872000000     1.689000000    -5.981000000
H    -0.845000000     1.891000000    -5.883000000
C    -0.057000000     0.160000000    -4.884000000
C     1.118000000    -0.547000000    -4.652000000
H     2.107000000    -0.121000000    -4.799000000
C    -1.293000000    -0.443000000    -4.598000000
C    -1.244000000    -1.784000000    -4.314000000
H    -2.150000000    -2.298000000    -4.002000000
C    -0.095000000    -2.520000000    -4.083000000
O    -0.202000000    -3.779000000    -3.549000000
C     0.178000000    -3.821000000    -2.101000000
C    -0.851000000    -4.558000000    -1.237000000
C    -0.614000000    -4.909000000     0.054000000
H     0.405000000    -4.801000000     0.418000000
C    -2.210000000    -4.647000000    -1.666000000
H    -2.544000000    -4.303000000    -2.642000000
O     1.458000000    -4.472000000    -2.048000000
H     0.211000000    -2.822000000    -1.640000000
C     1.090000000    -1.874000000    -4.284000000
C     2.416000000    -2.768000000    -4.255000000
H     3.160000000    -2.385000000    -4.957000000
H     2.193000000    -3.774000000    -4.615000000
C     2.907000000    -2.747000000    -2.839000000
C     3.827000000    -1.756000000    -2.591000000
H     4.231000000    -1.133000000    -3.385000000
C     2.433000000    -3.549000000    -1.825000000
C     2.998000000    -3.478000000    -0.547000000
H     2.717000000    -4.136000000     0.270000000
C     3.964000000    -2.459000000    -0.271000000
O     4.217000000    -2.222000000     1.074000000
C     3.818000000    -0.979000000     1.694000000
C     3.352000000    -1.223000000     3.153000000
C     2.987000000    -2.492000000     3.561000000
H     2.852000000    -3.190000000     2.739000000
C     3.246000000    -0.237000000     4.105000000
H     3.511000000     0.789000000     3.864000000
O     4.753000000     0.103000000     1.572000000
H     2.870000000    -0.625000000     1.262000000
C     4.418000000    -1.671000000    -1.321000000
C     5.390000000    -0.547000000    -1.160000000
H     6.036000000    -0.451000000    -2.035000000
H     6.085000000    -0.848000000    -0.373000000
C     4.695000000     0.748000000    -0.739000000
C     4.501000000     1.035000000     0.601000000
C     3.929000000     2.194000000     1.065000000
H     3.680000000     2.443000000     2.093000000
C     3.548000000     3.073000000     0.065000000
O     2.715000000     4.114000000     0.546000000
C     1.282000000     4.072000000     0.427000000
H     0.972000000     3.040000000     0.206000000
C     0.586000000     4.532000000     1.678000000
C    -0.779000000     4.623000000     1.712000000
H    -1.283000000     4.430000000     0.768000000
C     1.295000000     4.505000000     2.884000000
H     2.375000000     4.387000000     2.912000000
C     0.617000000     4.886000000     4.080000000
O     1.277000000     5.080000000     5.265000000
C    -0.761000000     5.096000000     4.038000000
H    -1.243000000     5.305000000     4.990000000
C    -1.465000000     4.943000000     2.891000000
O    -2.770000000     5.079000000     2.963000000
C    -3.569000000     5.110000000     1.850000000
C    -4.377000000     4.031000000     1.292000000
H    -4.316000000     3.100000000     1.851000000
C    -3.594000000     6.302000000     1.155000000
H    -2.982000000     7.103000000     1.560000000
C    -4.470000000     6.485000000     0.025000000
H    -4.518000000     7.474000000    -0.425000000
C    -5.175000000     5.456000000    -0.500000000
H    -5.712000000     5.674000000    -1.420000000
C    -5.140000000     4.191000000     0.133000000
O    -5.986000000     3.170000000    -0.330000000
C    -5.488000000     2.141000000    -1.091000000
C    -6.254000000     0.965000000    -1.296000000
H    -7.275000000     0.959000000    -0.924000000
C    -5.798000000    -0.156000000    -2.016000000
O    -6.565000000    -1.294000000    -1.871000000
C    -6.335000000    -2.539000000    -2.349000000
C    -5.430000000    -3.406000000    -1.662000000
H    -4.930000000    -2.990000000    -0.791000000
C    -6.928000000    -2.953000000    -3.516000000
H    -7.594000000    -2.292000000    -4.064000000
C    -6.724000000    -4.313000000    -3.959000000
H    -7.236000000    -4.528000000    -4.894000000
C    -5.870000000    -5.168000000    -3.229000000
H    -5.741000000    -6.207000000    -3.522000000
C    -5.203000000    -4.685000000    -2.075000000
O    -4.390000000    -5.502000000    -1.397000000
C    -3.180000000    -5.182000000    -0.847000000
C    -2.903000000    -5.621000000     0.449000000
H    -3.688000000    -5.913000000     1.141000000
C    -1.605000000    -5.481000000     0.896000000
O    -1.433000000    -5.746000000     2.257000000
C    -0.142000000    -5.720000000     2.818000000
C     0.221000000    -4.868000000     3.794000000
H    -0.570000000    -4.207000000     4.138000000
C     0.819000000    -6.656000000     2.385000000
H     0.649000000    -7.312000000     1.535000000
C     2.128000000    -6.661000000     2.954000000
H     2.946000000    -7.155000000     2.436000000
C     2.469000000    -5.736000000     3.897000000
H     3.494000000    -5.716000000     4.261000000
C     1.493000000    -4.887000000     4.357000000
O     1.835000000    -3.882000000     5.171000000
C     2.512000000    -2.735000000     4.829000000
C     2.262000000    -1.750000000     5.724000000
H     1.863000000    -1.891000000     6.725000000
C     2.625000000    -0.474000000     5.340000000
O     2.432000000     0.534000000     6.280000000
C     2.809000000     1.825000000     6.190000000
C     4.030000000     2.338000000     6.679000000
H     4.673000000     1.574000000     7.109000000
C     4.377000000     3.652000000     6.568000000
H     5.352000000     4.000000000     6.898000000
C     3.467000000     4.541000000     6.091000000
H     3.748000000     5.587000000     6.002000000
C     2.192000000     4.150000000     5.701000000
C     1.885000000     2.788000000     5.707000000
H     0.867000000     2.429000000     5.581000000
C    -0.341000000    -0.807000000     3.017000000
H    -0.338000000    -1.330000000     3.970000000
C     0.372000000    -1.206000000     1.873000000
H     0.956000000    -2.121000000     1.928000000
C     0.287000000    -0.429000000     0.695000000
H     0.860000000    -0.826000000    -0.173000000
C    -0.509000000     0.692000000     0.703000000
H    -0.616000000     1.233000000    -0.234000000
C    -1.129000000     1.148000000     1.891000000
H    -1.659000000     2.095000000     1.851000000
C    -0.995000000     0.434000000     3.032000000
C    -1.771000000     0.797000000     4.248000000
O    -2.073000000     1.938000000     4.476000000
O    -1.958000000    -0.093000000     5.074000000
O    -5.646000000     6.182000000     4.178000000
H    -4.948000000     5.527000000     4.195000000
H    -6.455000000     5.670000000     4.165000000
O    -4.839000000    -0.349000000     9.126000000
H    -4.022000000    -0.125000000     8.681000000
H    -5.320000000    -0.879000000     8.490000000
O    -3.026000000     0.685000000     7.372000000
H    -2.791000000     0.524000000     6.458000000
H    -2.645000000     1.541000000     7.569000000
O    -7.057000000     1.685000000     2.834000000
H    -6.873000000     1.502000000     3.755000000
H    -6.903000000     0.851000000     2.389000000
O    -5.826000000    -2.751000000     6.582000000
H    -6.697000000    -2.590000000     6.221000000
H    -5.226000000    -2.390000000     5.929000000
O    -3.376000000    -0.822000000     0.819000000
H    -2.807000000    -0.264000000     1.349000000
H    -2.838000000    -1.065000000     0.065000000
O    -4.362000000     3.099000000     5.087000000
H    -4.682000000     2.218000000     5.281000000
H    -3.601000000     2.959000000     4.524000000
O    -1.670000000     3.117000000     6.836000000
H    -1.805000000     2.721000000     5.975000000
H    -1.998000000     4.012000000     6.742000000
O    -5.935000000    -0.429000000     1.944000000
H    -5.024000000    -0.562000000     1.683000000
H    -6.349000000    -1.282000000     1.812000000
O    -5.488000000    -3.923000000     3.812000000
H    -5.782000000    -3.087000000     4.176000000
H    -6.265000000    -4.482000000     3.841000000
O    -3.520000000    -5.387000000     4.749000000
H    -4.420000000    -5.266000000     4.448000000
H    -3.411000000    -4.737000000     5.443000000
O    -1.189000000     4.109000000     9.698000000
H    -1.303000000     4.015000000     8.752000000
H    -2.018000000     3.808000000    10.070000000
O    -1.383000000    -1.594000000     8.344000000
H    -1.777000000    -0.726000000     8.254000000
H    -0.633000000    -1.458000000     8.923000000
O    -5.203000000     3.989000000     7.791000000
H    -4.528000000     4.588000000     8.111000000
H    -4.829000000     3.612000000     6.994000000
O    -2.738000000    -3.823000000     6.784000000
H    -1.809000000    -4.053000000     6.777000000
H    -2.758000000    -2.916000000     7.089000000
O    -2.524000000     5.644000000     7.417000000
H    -3.246000000     6.065000000     6.952000000
H    -1.813000000     6.284000000     7.385000000
O    -0.045000000     1.313000000     8.364000000
H    -0.708000000     1.890000000     7.984000000
H     0.197000000     0.724000000     7.650000000
O    -5.870000000     0.377000000     5.093000000
H    -5.142000000    -0.239000000     5.175000000
H    -6.629000000    -0.174000000     4.899000000
O    -3.969000000    -1.778000000     4.762000000
H    -3.604000000    -2.449000000     4.185000000
H    -3.217000000    -1.243000000     5.015000000
