215
-1448.55568
C    -4.696000000     1.015000000    -2.592000000
H    -4.449000000     0.133000000    -3.177000000
C    -3.720000000     2.028000000    -2.346000000
C    -4.125000000     3.097000000    -1.551000000
H    -3.396000000     3.870000000    -1.322000000
C    -2.303000000     2.030000000    -3.018000000
O    -2.334000000     1.271000000    -4.246000000
H    -1.544000000     1.502000000    -2.421000000
O    -1.821000000     3.357000000    -3.337000000
C    -0.512000000     3.526000000    -3.033000000
C    -0.261000000     4.214000000    -1.824000000
H    -1.056000000     4.457000000    -1.124000000
C     1.050000000     4.294000000    -1.346000000
O     1.267000000     4.711000000    -0.092000000
C     2.073000000     3.820000000    -2.167000000
C     3.530000000     3.839000000    -1.677000000
H     4.228000000     3.843000000    -2.516000000
C     3.974000000     2.537000000    -0.804000000
C     4.666000000     1.502000000    -1.489000000
H     4.943000000     1.657000000    -2.528000000
H     3.606000000     4.738000000    -1.061000000
C     1.819000000     3.185000000    -3.391000000
H     2.689000000     2.826000000    -3.935000000
C     0.500000000     3.054000000    -3.865000000
C     0.278000000     2.247000000    -5.154000000
H     1.209000000     2.307000000    -5.722000000
H    -0.469000000     2.735000000    -5.784000000
C    -0.074000000     0.789000000    -4.916000000
C     0.994000000    -0.130000000    -5.082000000
H     1.947000000     0.150000000    -5.524000000
C    -1.294000000     0.416000000    -4.376000000
C    -1.519000000    -0.911000000    -4.139000000
H    -2.493000000    -1.144000000    -3.717000000
C    -0.419000000    -1.808000000    -4.112000000
O    -0.675000000    -3.106000000    -3.748000000
C    -0.225000000    -3.408000000    -2.411000000
C    -1.273000000    -4.159000000    -1.651000000
C    -0.880000000    -5.097000000    -0.712000000
H     0.133000000    -5.485000000    -0.638000000
C    -2.610000000    -3.772000000    -1.642000000
H    -2.982000000    -2.901000000    -2.176000000
O     1.011000000    -4.132000000    -2.552000000
H     0.047000000    -2.500000000    -1.854000000
C     0.830000000    -1.424000000    -4.643000000
C     2.019000000    -2.395000000    -4.645000000
H     2.704000000    -1.910000000    -5.344000000
H     1.783000000    -3.365000000    -5.088000000
C     2.652000000    -2.552000000    -3.316000000
C     3.773000000    -1.805000000    -2.914000000
H     4.271000000    -1.185000000    -3.655000000
C     2.125000000    -3.393000000    -2.354000000
C     2.627000000    -3.451000000    -1.086000000
H     2.194000000    -4.200000000    -0.428000000
C     3.693000000    -2.653000000    -0.728000000
O     4.033000000    -2.717000000     0.634000000
C     3.731000000    -1.579000000     1.497000000
C     3.290000000    -2.016000000     2.872000000
C     2.524000000    -3.147000000     3.010000000
H     2.221000000    -3.713000000     2.132000000
C     3.607000000    -1.213000000     3.957000000
H     4.198000000    -0.315000000     3.795000000
O     4.853000000    -0.732000000     1.429000000
H     2.868000000    -1.058000000     1.055000000
C     4.268000000    -1.783000000    -1.605000000
C     5.449000000    -0.879000000    -1.346000000
H     6.065000000    -0.786000000    -2.242000000
H     6.116000000    -1.342000000    -0.616000000
C     4.978000000     0.377000000    -0.677000000
C     4.709000000     0.390000000     0.697000000
C     4.017000000     1.394000000     1.286000000
H     3.614000000     1.343000000     2.294000000
C     3.664000000     2.506000000     0.585000000
O     2.923000000     3.484000000     1.199000000
C     1.525000000     3.651000000     0.927000000
H     1.123000000     2.716000000     0.509000000
C     0.760000000     3.841000000     2.244000000
C    -0.497000000     4.475000000     2.230000000
H    -0.993000000     4.847000000     1.338000000
C     1.288000000     3.503000000     3.521000000
H     2.272000000     3.050000000     3.601000000
C     0.446000000     3.584000000     4.661000000
O     0.870000000     3.212000000     5.872000000
C    -0.820000000     4.168000000     4.606000000
H    -1.522000000     4.180000000     5.435000000
C    -1.255000000     4.627000000     3.423000000
O    -2.579000000     5.007000000     3.404000000
C    -3.288000000     5.428000000     2.267000000
C    -4.185000000     4.514000000     1.603000000
H    -4.251000000     3.470000000     1.900000000
C    -3.258000000     6.789000000     1.906000000
H    -2.519000000     7.384000000     2.437000000
C    -4.179000000     7.274000000     0.959000000
H    -4.280000000     8.355000000     0.912000000
C    -5.076000000     6.393000000     0.258000000
H    -5.743000000     6.725000000    -0.533000000
C    -5.046000000     4.989000000     0.574000000
O    -5.898000000     4.087000000    -0.105000000
C    -5.416000000     3.149000000    -1.008000000
C    -6.285000000     2.086000000    -1.148000000
H    -7.257000000     2.158000000    -0.666000000
C    -5.953000000     1.025000000    -1.962000000
O    -6.838000000    -0.039000000    -2.056000000
C    -6.499000000    -1.313000000    -2.518000000
C    -5.817000000    -2.119000000    -1.602000000
H    -5.496000000    -1.718000000    -0.644000000
C    -6.851000000    -1.776000000    -3.766000000
H    -7.413000000    -1.160000000    -4.463000000
C    -6.319000000    -2.981000000    -4.245000000
H    -6.509000000    -3.250000000    -5.281000000
C    -5.844000000    -3.907000000    -3.267000000
H    -5.710000000    -4.960000000    -3.500000000
C    -5.599000000    -3.464000000    -1.944000000
O    -4.906000000    -4.250000000    -1.011000000
C    -3.573000000    -4.529000000    -0.961000000
C    -3.112000000    -5.544000000    -0.148000000
H    -3.814000000    -6.123000000     0.447000000
C    -1.747000000    -5.774000000    -0.006000000
O    -1.424000000    -6.793000000     0.833000000
C    -0.236000000    -6.696000000     1.580000000
C    -0.003000000    -5.644000000     2.440000000
H    -0.707000000    -4.820000000     2.535000000
C     0.730000000    -7.702000000     1.645000000
H     0.628000000    -8.604000000     1.047000000
C     1.801000000    -7.669000000     2.545000000
H     2.401000000    -8.563000000     2.697000000
C     2.000000000    -6.561000000     3.315000000
H     2.854000000    -6.604000000     3.986000000
C     1.052000000    -5.553000000     3.344000000
O     1.083000000    -4.555000000     4.310000000
C     1.972000000    -3.507000000     4.190000000
C     2.260000000    -2.771000000     5.293000000
H     1.951000000    -3.012000000     6.306000000
C     3.064000000    -1.635000000     5.203000000
O     3.294000000    -0.849000000     6.343000000
C     3.258000000     0.446000000     6.207000000
C     4.475000000     1.150000000     6.383000000
H     5.371000000     0.547000000     6.499000000
C     4.503000000     2.547000000     6.474000000
H     5.421000000     3.098000000     6.665000000
C     3.244000000     3.145000000     6.400000000
H     3.152000000     4.199000000     6.651000000
C     2.073000000     2.480000000     6.040000000
C     2.046000000     1.106000000     5.976000000
H     1.124000000     0.543000000     5.851000000
C    -0.343000000    -1.208000000     2.760000000
H    -0.108000000    -1.977000000     3.492000000
C     0.046000000    -1.397000000     1.473000000
H     0.608000000    -2.301000000     1.254000000
C    -0.204000000    -0.483000000     0.500000000
H     0.116000000    -0.586000000    -0.559000000
C    -0.988000000     0.692000000     0.764000000
H    -1.370000000     1.306000000    -0.048000000
C    -1.383000000     0.946000000     2.066000000
H    -2.166000000     1.668000000     2.281000000
C    -1.083000000    -0.056000000     3.019000000
C    -1.641000000     0.091000000     4.477000000
O    -2.399000000     1.036000000     4.601000000
O    -1.377000000    -0.631000000     5.422000000
O    -4.002000000    -0.850000000     6.471000000
H    -4.178000000    -1.101000000     5.564000000
H    -3.130000000    -0.457000000     6.446000000
O    -7.602000000    -1.753000000     4.771000000
H    -6.757000000    -1.423000000     4.466000000
H    -7.713000000    -2.586000000     4.313000000
O    -6.130000000     3.774000000     4.419000000
H    -6.956000000     3.651000000     3.951000000
H    -5.600000000     3.016000000     4.172000000
O    -4.053000000    -0.203000000     0.970000000
H    -4.170000000     0.690000000     0.644000000
H    -3.168000000    -0.211000000     1.334000000
O    -1.539000000     1.584000000     7.244000000
H    -0.683000000     1.995000000     7.115000000
H    -1.707000000     1.120000000     6.424000000
O    -4.755000000     1.250000000     3.597000000
H    -3.843000000     1.184000000     3.879000000
H    -5.020000000     0.345000000     3.431000000
O    -4.532000000    -1.636000000     3.866000000
H    -4.968000000    -2.120000000     3.164000000
H    -3.645000000    -1.994000000     3.888000000
O    -4.648000000     5.787000000     5.199000000
H    -3.885000000     5.475000000     4.712000000
H    -5.286000000     5.076000000     5.124000000
O    -7.000000000    -0.559000000     1.231000000
H    -7.069000000     0.381000000     1.396000000
H    -6.061000000    -0.717000000     1.135000000
O    -3.533000000    -5.047000000     3.048000000
H    -3.113000000    -4.235000000     3.333000000
H    -4.292000000    -4.759000000     2.541000000
O    -6.169000000    -1.943000000     7.739000000
H    -5.442000000    -1.538000000     7.267000000
H    -6.445000000    -2.667000000     7.177000000
O    -3.495000000    -3.431000000     7.860000000
H    -3.983000000    -2.614000000     7.752000000
H    -2.833000000    -3.229000000     8.521000000
O     1.379000000     1.073000000     9.176000000
H     2.315000000     0.874000000     9.171000000
H     0.958000000     0.246000000     8.942000000
O    -0.221000000    -3.950000000     6.889000000
H    -0.115000000    -4.786000000     6.435000000
H    -1.162000000    -3.885000000     7.054000000
O    -0.081000000    -1.117000000     7.885000000
H     0.303000000    -1.879000000     7.451000000
H    -0.449000000    -0.596000000     7.172000000
O    -3.915000000     3.116000000     6.759000000
H    -3.136000000     2.573000000     6.885000000
H    -4.189000000     2.935000000     5.860000000
O    -2.087000000     1.389000000     9.843000000
H    -1.325000000     1.738000000    10.306000000
H    -1.888000000     1.525000000     8.917000000
O    -2.049000000    -2.245000000    10.042000000
H    -1.672000000    -1.445000000     9.675000000
H    -1.363000000    -2.594000000    10.611000000
O    -2.185000000    -3.036000000     4.440000000
H    -1.954000000    -2.313000000     5.024000000
H    -1.880000000    -3.819000000     4.897000000
