215
-1467.52449
C    -1.972000000    -0.278000000    -4.634000000
H    -1.176000000    -0.971000000    -4.893000000
C    -1.646000000     1.036000000    -4.211000000
C    -2.676000000     1.905000000    -3.906000000
H    -2.512000000     2.905000000    -3.513000000
C    -0.193000000     1.505000000    -3.989000000
O     0.609000000     0.671000000    -4.867000000
H     0.128000000     1.281000000    -2.961000000
O     0.024000000     2.908000000    -4.129000000
C     0.768000000     3.425000000    -3.155000000
C     0.090000000     4.026000000    -2.102000000
H    -0.979000000     4.144000000    -2.260000000
C     0.758000000     4.562000000    -1.031000000
O    -0.046000000     5.072000000    -0.011000000
C     2.175000000     4.396000000    -0.890000000
C     2.835000000     4.844000000     0.335000000
H     3.814000000     5.170000000    -0.021000000
C     2.854000000     3.804000000     1.397000000
C     3.945000000     2.916000000     1.552000000
H     4.631000000     3.065000000     0.723000000
H     2.357000000     5.763000000     0.680000000
C     2.852000000     3.725000000    -1.925000000
H     3.929000000     3.662000000    -1.789000000
C     2.147000000     3.176000000    -3.026000000
C     2.927000000     2.305000000    -4.051000000
H     3.963000000     2.646000000    -3.991000000
H     2.537000000     2.553000000    -5.040000000
C     2.822000000     0.863000000    -3.876000000
C     3.879000000     0.197000000    -3.205000000
H     4.797000000     0.739000000    -2.992000000
C     1.765000000     0.122000000    -4.314000000
C     1.743000000    -1.267000000    -4.020000000
H     0.844000000    -1.783000000    -4.348000000
C     2.661000000    -1.880000000    -3.206000000
O     2.551000000    -3.210000000    -2.855000000
C     1.931000000    -3.428000000    -1.518000000
C     0.922000000    -4.534000000    -1.470000000
C     0.706000000    -5.214000000    -0.298000000
H     1.220000000    -4.966000000     0.627000000
C     0.181000000    -4.767000000    -2.621000000
H     0.220000000    -4.124000000    -3.496000000
O     2.951000000    -3.566000000    -0.542000000
H     1.338000000    -2.551000000    -1.220000000
C     3.846000000    -1.159000000    -2.898000000
C     4.945000000    -1.733000000    -1.918000000
H     5.846000000    -1.145000000    -2.103000000
H     5.155000000    -2.781000000    -2.142000000
C     4.558000000    -1.614000000    -0.446000000
C     5.053000000    -0.588000000     0.353000000
H     5.740000000     0.129000000    -0.089000000
C     3.644000000    -2.543000000     0.104000000
C     3.276000000    -2.466000000     1.439000000
H     2.732000000    -3.331000000     1.810000000
C     3.743000000    -1.415000000     2.219000000
O     3.292000000    -1.424000000     3.513000000
C     2.192000000    -0.592000000     3.743000000
C     1.077000000    -1.288000000     4.555000000
C     0.957000000    -2.695000000     4.419000000
H     1.660000000    -3.360000000     3.924000000
C     0.054000000    -0.548000000     5.180000000
H     0.138000000     0.534000000     5.246000000
O     2.474000000     0.713000000     4.203000000
H     1.672000000    -0.373000000     2.799000000
C     4.591000000    -0.407000000     1.671000000
C     5.007000000     0.773000000     2.462000000
H     5.956000000     1.121000000     2.047000000
H     5.148000000     0.412000000     3.483000000
C     3.912000000     1.870000000     2.507000000
C     2.808000000     1.760000000     3.337000000
C     1.771000000     2.628000000     3.242000000
H     0.884000000     2.487000000     3.854000000
C     1.734000000     3.620000000     2.266000000
O     0.536000000     4.373000000     2.151000000
C    -0.354000000     4.125000000     1.032000000
H    -0.153000000     3.104000000     0.676000000
C    -1.798000000     4.169000000     1.467000000
C    -2.747000000     4.744000000     0.567000000
H    -2.494000000     5.098000000    -0.429000000
C    -2.144000000     3.726000000     2.743000000
H    -1.347000000     3.364000000     3.387000000
C    -3.463000000     3.655000000     3.152000000
O    -3.855000000     3.275000000     4.426000000
C    -4.459000000     4.111000000     2.259000000
H    -5.471000000     4.175000000     2.648000000
C    -4.132000000     4.683000000     1.025000000
O    -5.208000000     5.164000000     0.280000000
C    -5.122000000     5.108000000    -1.116000000
C    -5.042000000     3.841000000    -1.671000000
H    -5.278000000     3.075000000    -0.936000000
C    -5.058000000     6.261000000    -1.903000000
H    -5.197000000     7.263000000    -1.505000000
C    -4.929000000     6.091000000    -3.295000000
H    -4.910000000     6.928000000    -3.988000000
C    -4.788000000     4.768000000    -3.822000000
H    -4.424000000     4.655000000    -4.840000000
C    -5.039000000     3.638000000    -3.059000000
O    -5.093000000     2.354000000    -3.637000000
C    -4.027000000     1.472000000    -3.918000000
C    -4.362000000     0.135000000    -4.262000000
H    -5.378000000    -0.242000000    -4.350000000
C    -3.325000000    -0.726000000    -4.575000000
O    -3.704000000    -1.921000000    -5.131000000
C    -2.961000000    -3.030000000    -5.348000000
C    -2.649000000    -3.932000000    -4.312000000
H    -2.970000000    -3.722000000    -3.295000000
C    -2.650000000    -3.334000000    -6.645000000
H    -2.975000000    -2.663000000    -7.436000000
C    -1.906000000    -4.471000000    -6.922000000
H    -1.580000000    -4.573000000    -7.954000000
C    -1.489000000    -5.328000000    -5.897000000
H    -0.849000000    -6.193000000    -6.049000000
C    -1.922000000    -5.096000000    -4.589000000
O    -1.578000000    -5.991000000    -3.588000000
C    -0.800000000    -5.753000000    -2.482000000
C    -1.009000000    -6.501000000    -1.300000000
H    -1.699000000    -7.337000000    -1.225000000
C    -0.236000000    -6.261000000    -0.243000000
O    -0.389000000    -6.991000000     0.952000000
C     0.177000000    -6.608000000     2.124000000
C    -0.330000000    -5.641000000     3.002000000
H    -1.143000000    -4.980000000     2.709000000
C     1.270000000    -7.368000000     2.570000000
H     1.576000000    -8.120000000     1.847000000
C     1.940000000    -7.145000000     3.716000000
H     2.799000000    -7.743000000     4.009000000
C     1.406000000    -6.241000000     4.607000000
H     1.857000000    -5.921000000     5.542000000
C     0.243000000    -5.565000000     4.251000000
O    -0.208000000    -4.713000000     5.204000000
C     0.005000000    -3.357000000     5.217000000
C    -0.913000000    -2.598000000     5.964000000
H    -1.644000000    -3.105000000     6.589000000
C    -0.945000000    -1.192000000     5.901000000
O    -1.931000000    -0.530000000     6.611000000
C    -2.050000000     0.839000000     6.533000000
C    -1.358000000     1.707000000     7.421000000
H    -0.641000000     1.287000000     8.122000000
C    -1.402000000     3.097000000     7.230000000
H    -0.853000000     3.788000000     7.865000000
C    -2.195000000     3.604000000     6.208000000
H    -2.238000000     4.687000000     6.120000000
C    -2.960000000     2.841000000     5.350000000
C    -2.971000000     1.414000000     5.583000000
H    -3.624000000     0.826000000     4.944000000
C    -1.546000000    -0.397000000     1.803000000
H    -1.570000000    -0.996000000     2.710000000
C    -0.400000000    -0.305000000     1.073000000
H     0.524000000    -0.780000000     1.392000000
C    -0.375000000     0.405000000    -0.155000000
H     0.521000000     0.452000000    -0.821000000
C    -1.475000000     1.132000000    -0.542000000
H    -1.500000000     1.665000000    -1.489000000
C    -2.721000000     0.984000000     0.176000000
H    -3.604000000     1.367000000    -0.330000000
C    -2.747000000     0.213000000     1.342000000
C    -4.000000000     0.022000000     2.138000000
O    -4.980000000     0.597000000     1.786000000
O    -4.064000000    -0.721000000     3.050000000
O    -6.554000000     3.436000000     5.537000000
H    -6.326000000     3.672000000     6.437000000
H    -5.712000000     3.352000000     5.091000000
O    -2.671000000    -2.952000000     3.503000000
H    -1.950000000    -2.758000000     4.102000000
H    -3.152000000    -2.128000000     3.432000000
O    -6.924000000     2.439000000     2.320000000
H    -7.498000000     2.296000000     1.567000000
H    -6.201000000     1.827000000     2.189000000
O    -2.977000000    -4.039000000    -0.568000000
H    -2.060000000    -4.223000000    -0.771000000
H    -3.250000000    -4.766000000    -0.008000000
O    -7.621000000     1.443000000    -2.511000000
H    -7.043000000     2.046000000    -2.979000000
H    -7.057000000     1.032000000    -1.855000000
O    -6.951000000    -0.995000000     3.310000000
H    -6.177000000    -0.687000000     2.839000000
H    -7.196000000    -0.262000000     3.874000000
O    -8.791000000    -2.117000000     1.410000000
H    -9.356000000    -2.768000000     1.826000000
H    -8.129000000    -1.917000000     2.072000000
O    -3.910000000    -5.601000000     1.326000000
H    -3.138000000    -6.142000000     1.494000000
H    -4.329000000    -5.510000000     2.181000000
O    -5.658000000    -5.303000000    -0.670000000
H    -5.014000000    -5.488000000     0.014000000
H    -6.298000000    -4.730000000    -0.248000000
O    -8.460000000     4.746000000     4.207000000
H    -8.092000000     5.351000000     4.850000000
H    -7.827000000     4.029000000     4.162000000
O    -7.350000000    -4.828000000     1.886000000
H    -6.547000000    -4.331000000     2.041000000
H    -8.015000000    -4.379000000     2.408000000
O    -4.957000000    -1.499000000     5.571000000
H    -5.836000000    -1.158000000     5.409000000
H    -4.488000000    -1.353000000     4.750000000
O    -9.141000000     1.278000000     1.309000000
H    -9.613000000     1.409000000     2.131000000
H    -9.090000000     0.327000000     1.211000000
O    -7.642000000     1.042000000     5.149000000
H    -7.079000000     1.774000000     5.401000000
H    -8.111000000     1.355000000     4.376000000
O    -5.376000000    -3.131000000     2.336000000
H    -4.510000000    -3.130000000     2.743000000
H    -5.791000000    -2.329000000     2.653000000
O    -5.929000000     0.081000000    -0.881000000
H    -5.541000000     0.408000000    -0.069000000
H    -6.082000000    -0.850000000    -0.715000000
O    -5.798000000    -0.526000000     8.033000000
H    -5.448000000    -0.882000000     7.217000000
H    -5.883000000    -1.286000000     8.609000000
O    -5.230000000    -2.384000000    -0.197000000
H    -5.150000000    -2.727000000     0.693000000
H    -4.431000000    -2.673000000    -0.638000000
O    -3.760000000    -4.549000000     5.571000000
H    -3.917000000    -5.273000000     4.965000000
H    -3.550000000    -3.805000000     5.006000000
