215
-1490.52468
C    -4.367000000     0.010000000    -2.382000000
H    -3.913000000    -0.887000000    -2.796000000
C    -3.714000000     1.213000000    -2.541000000
C    -4.247000000     2.325000000    -1.886000000
H    -3.755000000     3.294000000    -1.892000000
C    -2.334000000     1.248000000    -3.242000000
O    -2.213000000     0.292000000    -4.274000000
H    -1.546000000     0.955000000    -2.533000000
O    -2.071000000     2.533000000    -3.797000000
C    -0.772000000     2.964000000    -3.519000000
C    -0.590000000     3.800000000    -2.446000000
H    -1.420000000     4.264000000    -1.920000000
C     0.676000000     4.159000000    -2.034000000
O     0.857000000     4.959000000    -0.963000000
C     1.850000000     3.655000000    -2.639000000
C     3.216000000     4.085000000    -2.249000000
H     3.998000000     3.950000000    -2.999000000
C     3.716000000     3.153000000    -1.117000000
C     4.341000000     1.985000000    -1.490000000
H     4.517000000     1.728000000    -2.531000000
H     3.193000000     5.116000000    -1.890000000
C     1.573000000     2.864000000    -3.821000000
H     2.447000000     2.423000000    -4.292000000
C     0.318000000     2.494000000    -4.285000000
C     0.205000000     1.471000000    -5.405000000
H     1.028000000     1.563000000    -6.117000000
H    -0.706000000     1.499000000    -6.006000000
C     0.144000000     0.049000000    -4.869000000
C     1.330000000    -0.765000000    -4.704000000
H     2.223000000    -0.296000000    -5.109000000
C    -1.044000000    -0.415000000    -4.283000000
C    -1.063000000    -1.659000000    -3.686000000
H    -2.033000000    -2.011000000    -3.342000000
C     0.078000000    -2.466000000    -3.553000000
O    -0.041000000    -3.683000000    -2.883000000
C     0.577000000    -3.832000000    -1.524000000
C    -0.475000000    -4.550000000    -0.635000000
C    -0.079000000    -5.114000000     0.568000000
H     0.957000000    -5.067000000     0.893000000
C    -1.864000000    -4.495000000    -0.887000000
H    -2.186000000    -3.908000000    -1.743000000
O     1.827000000    -4.479000000    -1.654000000
H     0.681000000    -2.785000000    -1.202000000
C     1.297000000    -1.975000000    -4.110000000
C     2.556000000    -2.850000000    -4.129000000
H     3.280000000    -2.539000000    -4.886000000
H     2.278000000    -3.886000000    -4.336000000
C     3.229000000    -2.762000000    -2.774000000
C     4.138000000    -1.665000000    -2.581000000
H     4.426000000    -0.967000000    -3.363000000
C     2.870000000    -3.601000000    -1.677000000
C     3.474000000    -3.358000000    -0.479000000
H     3.228000000    -3.927000000     0.414000000
C     4.219000000    -2.242000000    -0.251000000
O     4.548000000    -1.911000000     1.083000000
C     3.745000000    -0.880000000     1.712000000
C     3.290000000    -1.343000000     3.139000000
C     3.308000000    -2.676000000     3.538000000
H     3.631000000    -3.377000000     2.772000000
C     2.945000000    -0.413000000     4.103000000
H     2.915000000     0.646000000     3.860000000
O     4.554000000     0.263000000     1.756000000
H     2.890000000    -0.570000000     1.093000000
C     4.656000000    -1.400000000    -1.309000000
C     5.540000000    -0.193000000    -1.035000000
H     6.169000000     0.071000000    -1.888000000
H     6.266000000    -0.355000000    -0.236000000
C     4.791000000     1.048000000    -0.607000000
C     4.503000000     1.197000000     0.788000000
C     3.726000000     2.311000000     1.160000000
H     3.345000000     2.418000000     2.173000000
C     3.315000000     3.293000000     0.252000000
O     2.503000000     4.326000000     0.633000000
C     1.109000000     4.217000000     0.238000000
H     1.025000000     3.152000000    -0.024000000
C     0.116000000     4.480000000     1.362000000
C    -1.006000000     5.301000000     1.125000000
H    -1.115000000     5.907000000     0.229000000
C     0.251000000     3.822000000     2.560000000
H     1.105000000     3.167000000     2.712000000
C    -0.759000000     3.942000000     3.482000000
O    -0.681000000     3.265000000     4.653000000
C    -1.841000000     4.701000000     3.301000000
H    -2.553000000     4.869000000     4.105000000
C    -2.022000000     5.320000000     2.086000000
O    -3.058000000     6.203000000     1.871000000
C    -4.107000000     6.018000000     0.958000000
C    -4.599000000     4.770000000     0.588000000
H    -4.205000000     3.885000000     1.081000000
C    -4.576000000     7.175000000     0.265000000
H    -4.105000000     8.103000000     0.579000000
C    -5.452000000     7.046000000    -0.820000000
H    -5.784000000     7.922000000    -1.372000000
C    -5.840000000     5.765000000    -1.230000000
H    -6.571000000     5.700000000    -2.032000000
C    -5.468000000     4.627000000    -0.492000000
O    -6.055000000     3.401000000    -0.767000000
C    -5.543000000     2.293000000    -1.369000000
C    -6.300000000     1.133000000    -1.492000000
H    -7.357000000     1.116000000    -1.237000000
C    -5.740000000    -0.038000000    -2.016000000
O    -6.475000000    -1.170000000    -1.949000000
C    -5.954000000    -2.420000000    -2.131000000
C    -5.312000000    -3.103000000    -1.058000000
H    -5.265000000    -2.631000000    -0.080000000
C    -6.074000000    -3.021000000    -3.341000000
H    -6.626000000    -2.523000000    -4.133000000
C    -5.587000000    -4.327000000    -3.521000000
H    -5.910000000    -4.761000000    -4.464000000
C    -4.816000000    -5.020000000    -2.530000000
H    -4.221000000    -5.916000000    -2.690000000
C    -4.707000000    -4.326000000    -1.264000000
O    -4.181000000    -4.887000000    -0.140000000
C    -2.819000000    -5.016000000     0.012000000
C    -2.387000000    -5.667000000     1.152000000
H    -3.086000000    -6.146000000     1.834000000
C    -1.057000000    -5.649000000     1.445000000
O    -0.659000000    -6.311000000     2.588000000
C     0.689000000    -6.350000000     2.971000000
C     1.138000000    -5.408000000     3.968000000
H     0.484000000    -4.630000000     4.351000000
C     1.557000000    -7.252000000     2.441000000
H     1.221000000    -7.953000000     1.681000000
C     2.855000000    -7.249000000     2.829000000
H     3.567000000    -7.964000000     2.425000000
C     3.291000000    -6.307000000     3.750000000
H     4.329000000    -6.249000000     4.069000000
C     2.421000000    -5.416000000     4.357000000
O     2.941000000    -4.439000000     5.196000000
C     3.017000000    -3.090000000     4.835000000
C     2.653000000    -2.140000000     5.788000000
H     2.259000000    -2.517000000     6.729000000
C     2.632000000    -0.785000000     5.365000000
O     2.270000000     0.108000000     6.334000000
C     1.986000000     1.405000000     6.130000000
C     2.853000000     2.427000000     6.577000000
H     3.785000000     2.068000000     7.006000000
C     2.477000000     3.778000000     6.363000000
H     3.106000000     4.582000000     6.735000000
C     1.331000000     4.038000000     5.618000000
H     1.126000000     5.077000000     5.370000000
C     0.483000000     3.010000000     5.287000000
C     0.779000000     1.667000000     5.506000000
H     0.081000000     0.910000000     5.159000000
C    -0.286000000    -1.224000000     2.571000000
H    -0.145000000    -2.142000000     3.136000000
C     0.346000000    -1.126000000     1.337000000
H     1.119000000    -1.829000000     1.037000000
C     0.096000000    -0.052000000     0.470000000
H     0.589000000     0.035000000    -0.557000000
C    -0.809000000     0.928000000     0.821000000
H    -1.055000000     1.689000000     0.085000000
C    -1.449000000     0.829000000     2.043000000
H    -2.198000000     1.597000000     2.220000000
C    -1.255000000    -0.280000000     2.875000000
C    -2.159000000    -0.424000000     4.142000000
O    -3.097000000     0.415000000     4.273000000
O    -2.154000000    -1.256000000     5.003000000
O    -0.329000000     1.304000000     8.432000000
H     0.145000000     0.493000000     8.247000000
H    -0.961000000     1.380000000     7.717000000
O    -0.765000000    -2.042000000     7.171000000
H    -0.743000000    -2.969000000     6.932000000
H    -1.169000000    -1.610000000     6.418000000
O    -5.833000000    -5.589000000     2.284000000
H    -5.030000000    -5.070000000     2.233000000
H    -5.954000000    -5.930000000     1.398000000
O    -4.666000000    -0.404000000     2.227000000
H    -4.214000000     0.011000000     2.961000000
H    -5.224000000     0.285000000     1.868000000
O    -4.474000000     2.991000000     3.498000000
H    -5.060000000     2.642000000     2.826000000
H    -3.862000000     2.277000000     3.677000000
O    -6.091000000     2.538000000     7.956000000
H    -6.626000000     2.293000000     7.201000000
H    -5.643000000     1.730000000     8.205000000
O    -5.445000000    -0.438000000     5.220000000
H    -4.631000000     0.025000000     5.022000000
H    -5.979000000    -0.330000000     4.434000000
O    -2.885000000    -1.882000000     0.754000000
H    -2.145000000    -1.459000000     0.318000000
H    -3.351000000    -1.165000000     1.183000000
O    -5.375000000     5.358000000     4.036000000
H    -6.277000000     5.183000000     4.304000000
H    -4.897000000     4.561000000     4.269000000
O    -6.435000000     1.625000000     1.919000000
H    -6.944000000     2.326000000     1.511000000
H    -7.046000000     1.208000000     2.526000000
O    -1.777000000    -6.516000000     5.842000000
H    -1.836000000    -5.707000000     5.334000000
H    -2.515000000    -6.470000000     6.450000000
O    -4.170000000    -2.288000000     6.588000000
H    -4.801000000    -1.676000000     6.209000000
H    -3.324000000    -2.010000000     6.235000000
O    -4.332000000    -5.054000000     6.475000000
H    -4.067000000    -4.243000000     6.040000000
H    -4.339000000    -4.834000000     7.407000000
O    -4.203000000    -3.376000000     2.533000000
H    -4.588000000    -2.560000000     2.853000000
H    -3.804000000    -3.140000000     1.695000000
O    -2.277000000     1.724000000     6.452000000
H    -2.220000000     2.637000000     6.171000000
H    -2.560000000     1.250000000     5.671000000
O    -0.291000000    -1.490000000     9.704000000
H     0.576000000    -1.841000000     9.904000000
H    -0.398000000    -1.638000000     8.764000000
O    -4.128000000     0.339000000     8.271000000
H    -4.098000000    -0.479000000     7.776000000
H    -3.384000000     0.844000000     7.943000000
O    -3.388000000    -3.494000000     8.917000000
H    -2.567000000    -3.185000000     9.300000000
H    -3.432000000    -3.062000000     8.064000000
O    -2.250000000    -3.999000000     4.480000000
H    -2.107000000    -3.057000000     4.574000000
H    -2.848000000    -4.077000000     3.736000000
