215
-1471.77295
C    -4.488000000    -0.221000000    -2.849000000
H    -3.977000000    -1.142000000    -3.120000000
C    -3.873000000     1.036000000    -3.105000000
C    -4.447000000     2.204000000    -2.630000000
H    -3.973000000     3.166000000    -2.807000000
C    -2.460000000     1.053000000    -3.644000000
O    -2.115000000    -0.014000000    -4.570000000
H    -1.819000000     0.695000000    -2.824000000
O    -2.034000000     2.377000000    -4.084000000
C    -0.720000000     2.802000000    -3.730000000
C    -0.652000000     3.803000000    -2.737000000
H    -1.576000000     4.210000000    -2.336000000
C     0.582000000     4.207000000    -2.303000000
O     0.604000000     4.970000000    -1.178000000
C     1.776000000     3.630000000    -2.820000000
C     3.123000000     3.996000000    -2.342000000
H     3.785000000     3.922000000    -3.208000000
C     3.573000000     3.117000000    -1.170000000
C     4.329000000     1.960000000    -1.463000000
H     4.605000000     1.761000000    -2.495000000
H     3.075000000     4.996000000    -1.907000000
C     1.623000000     2.723000000    -3.856000000
H     2.534000000     2.364000000    -4.328000000
C     0.438000000     2.320000000    -4.323000000
C     0.370000000     1.234000000    -5.329000000
H     1.222000000     1.285000000    -6.011000000
H    -0.454000000     1.417000000    -6.022000000
C     0.207000000    -0.193000000    -4.808000000
C     1.357000000    -0.955000000    -4.640000000
H     2.372000000    -0.658000000    -4.895000000
C    -0.992000000    -0.746000000    -4.378000000
C    -1.083000000    -1.995000000    -3.766000000
H    -2.063000000    -2.347000000    -3.455000000
C     0.129000000    -2.685000000    -3.504000000
O     0.027000000    -3.825000000    -2.778000000
C     0.505000000    -3.729000000    -1.395000000
C    -0.357000000    -4.621000000    -0.536000000
C     0.136000000    -5.167000000     0.627000000
H     1.167000000    -5.148000000     0.976000000
C    -1.742000000    -4.550000000    -0.749000000
H    -2.099000000    -4.061000000    -1.652000000
O     1.845000000    -4.171000000    -1.383000000
H     0.360000000    -2.715000000    -0.995000000
C     1.334000000    -2.151000000    -3.965000000
C     2.598000000    -2.991000000    -3.701000000
H     3.274000000    -2.900000000    -4.553000000
H     2.290000000    -4.033000000    -3.590000000
C     3.288000000    -2.648000000    -2.355000000
C     4.233000000    -1.656000000    -2.140000000
H     4.671000000    -1.187000000    -3.018000000
C     2.832000000    -3.231000000    -1.209000000
C     3.291000000    -3.018000000     0.101000000
H     2.739000000    -3.392000000     0.959000000
C     4.297000000    -2.068000000     0.203000000
O     4.627000000    -1.623000000     1.497000000
C     3.855000000    -0.584000000     2.072000000
C     3.474000000    -0.943000000     3.521000000
C     3.194000000    -2.277000000     3.913000000
H     3.267000000    -3.091000000     3.195000000
C     3.236000000     0.064000000     4.487000000
H     3.431000000     1.111000000     4.272000000
O     4.587000000     0.667000000     2.072000000
H     2.982000000    -0.377000000     1.434000000
C     4.683000000    -1.322000000    -0.853000000
C     5.599000000    -0.128000000    -0.647000000
H     6.230000000     0.016000000    -1.527000000
H     6.265000000    -0.268000000     0.207000000
C     4.767000000     1.146000000    -0.405000000
C     4.341000000     1.462000000     0.916000000
C     3.584000000     2.517000000     1.227000000
H     3.308000000     2.650000000     2.270000000
C     3.195000000     3.396000000     0.171000000
O     2.303000000     4.396000000     0.485000000
C     0.912000000     4.281000000    -0.039000000
H     0.678000000     3.223000000    -0.231000000
C    -0.043000000     4.623000000     1.089000000
C    -1.328000000     5.123000000     0.798000000
H    -1.524000000     5.434000000    -0.225000000
C     0.143000000     4.119000000     2.388000000
H     0.957000000     3.458000000     2.679000000
C    -0.861000000     4.152000000     3.338000000
O    -0.703000000     3.491000000     4.540000000
C    -2.101000000     4.713000000     3.011000000
H    -2.899000000     4.781000000     3.748000000
C    -2.351000000     5.217000000     1.766000000
O    -3.575000000     5.588000000     1.492000000
C    -4.230000000     5.666000000     0.304000000
C    -4.990000000     4.556000000    -0.122000000
H    -4.981000000     3.629000000     0.446000000
C    -4.133000000     6.762000000    -0.541000000
H    -3.639000000     7.680000000    -0.233000000
C    -4.886000000     6.769000000    -1.735000000
H    -4.735000000     7.568000000    -2.456000000
C    -5.563000000     5.636000000    -2.202000000
H    -5.968000000     5.621000000    -3.211000000
C    -5.593000000     4.509000000    -1.351000000
O    -6.263000000     3.357000000    -1.707000000
C    -5.638000000     2.159000000    -2.019000000
C    -6.348000000     0.912000000    -1.852000000
H    -7.332000000     0.769000000    -1.411000000
C    -5.680000000    -0.293000000    -2.187000000
O    -6.369000000    -1.463000000    -2.077000000
C    -5.800000000    -2.743000000    -2.155000000
C    -4.965000000    -3.280000000    -1.126000000
H    -4.708000000    -2.788000000    -0.192000000
C    -6.152000000    -3.502000000    -3.288000000
H    -6.793000000    -3.011000000    -4.016000000
C    -5.683000000    -4.788000000    -3.414000000
H    -5.862000000    -5.387000000    -4.303000000
C    -4.917000000    -5.379000000    -2.433000000
H    -4.684000000    -6.441000000    -2.444000000
C    -4.601000000    -4.618000000    -1.270000000
O    -3.960000000    -5.326000000    -0.228000000
C    -2.624000000    -5.205000000     0.045000000
C    -2.174000000    -5.705000000     1.237000000
H    -2.854000000    -6.192000000     1.931000000
C    -0.809000000    -5.707000000     1.574000000
O    -0.428000000    -6.317000000     2.737000000
C     0.764000000    -6.219000000     3.344000000
C     1.071000000    -5.132000000     4.146000000
H     0.280000000    -4.453000000     4.456000000
C     1.752000000    -7.204000000     3.042000000
H     1.494000000    -8.008000000     2.357000000
C     2.998000000    -7.100000000     3.630000000
H     3.660000000    -7.956000000     3.523000000
C     3.250000000    -6.090000000     4.543000000
H     4.111000000    -6.201000000     5.194000000
C     2.396000000    -5.007000000     4.664000000
O     2.649000000    -3.997000000     5.588000000
C     2.792000000    -2.625000000     5.207000000
C     2.572000000    -1.594000000     6.147000000
H     2.148000000    -1.789000000     7.128000000
C     2.771000000    -0.275000000     5.785000000
O     2.472000000     0.611000000     6.784000000
C     2.081000000     1.872000000     6.346000000
C     2.889000000     2.950000000     6.544000000
H     3.727000000     2.900000000     7.235000000
C     2.550000000     4.236000000     6.070000000
H     3.184000000     5.094000000     6.276000000
C     1.326000000     4.466000000     5.410000000
H     0.928000000     5.417000000     5.065000000
C     0.546000000     3.315000000     5.144000000
C     0.883000000     2.028000000     5.631000000
H     0.184000000     1.200000000     5.543000000
C     0.062000000    -0.438000000     1.714000000
H     0.492000000    -1.226000000     2.328000000
C     0.747000000    -0.112000000     0.520000000
H     1.549000000    -0.788000000     0.234000000
C     0.171000000     0.896000000    -0.269000000
H     0.603000000     1.164000000    -1.262000000
C    -1.030000000     1.476000000     0.024000000
H    -1.458000000     2.198000000    -0.667000000
C    -1.663000000     1.108000000     1.208000000
H    -2.527000000     1.702000000     1.492000000
C    -1.057000000     0.256000000     2.113000000
C    -1.723000000    -0.073000000     3.383000000
O    -2.816000000     0.387000000     3.656000000
O    -1.277000000    -0.950000000     4.144000000
O    -3.039000000     3.998000000     6.716000000
H    -2.715000000     3.128000000     6.487000000
H    -3.883000000     4.066000000     6.268000000
O    -2.115000000    -0.956000000     9.004000000
H    -1.861000000    -1.018000000     8.083000000
H    -3.051000000    -1.157000000     9.009000000
O    -1.155000000    -0.959000000     6.665000000
H    -0.560000000    -1.653000000     6.950000000
H    -1.187000000    -1.047000000     5.712000000
O    -5.259000000    -5.544000000     2.554000000
H    -4.823000000    -4.977000000     1.917000000
H    -5.438000000    -4.972000000     3.300000000
O    -3.657000000    -1.629000000     1.671000000
H    -3.300000000    -1.170000000     2.431000000
H    -4.438000000    -1.128000000     1.433000000
O    -4.587000000     2.233000000     3.360000000
H    -4.934000000     1.946000000     2.515000000
H    -3.933000000     1.571000000     3.587000000
O    -7.961000000     0.207000000     5.672000000
H    -7.324000000    -0.106000000     5.029000000
H    -8.686000000    -0.417000000     5.613000000
O    -6.498000000    -1.152000000     3.588000000
H    -6.289000000    -0.687000000     2.778000000
H    -7.327000000    -1.594000000     3.403000000
O    -2.063000000    -1.402000000    -0.913000000
H    -1.331000000    -0.858000000    -0.622000000
H    -2.430000000    -1.762000000    -0.105000000
O    -5.358000000     4.260000000     5.098000000
H    -6.289000000     4.132000000     5.280000000
H    -5.104000000     3.486000000     4.595000000
O    -5.944000000    -0.125000000     0.878000000
H    -6.451000000     0.675000000     1.019000000
H    -6.180000000    -0.405000000    -0.006000000
O    -4.435000000    -1.162000000     5.470000000
H    -5.022000000    -1.111000000     4.716000000
H    -3.567000000    -0.977000000     5.110000000
O    -4.051000000    -3.534000000     7.006000000
H    -3.998000000    -2.625000000     6.711000000
H    -3.398000000    -3.995000000     6.478000000
O    -5.517000000    -4.900000000     5.018000000
H    -6.279000000    -5.197000000     5.517000000
H    -5.154000000    -4.183000000     5.539000000
O    -2.047000000    -3.396000000     3.293000000
H    -1.648000000    -2.567000000     3.560000000
H    -2.776000000    -3.141000000     2.729000000
O    -0.599000000    -3.819000000     7.726000000
H    -0.156000000    -4.645000000     7.919000000
H    -0.585000000    -3.340000000     8.554000000
O    -2.551000000     1.301000000     6.174000000
H    -2.067000000     0.505000000     6.392000000
H    -2.655000000     1.265000000     5.223000000
O    -5.345000000     1.493000000     6.509000000
H    -5.030000000     0.638000000     6.217000000
H    -4.554000000     2.029000000     6.575000000
O    -2.142000000    -4.987000000     5.703000000
H    -1.383000000    -4.727000000     6.225000000
H    -1.785000000    -5.162000000     4.833000000
