215
-1458.54642
C    -4.035000000    -0.839000000    -3.399000000
H    -3.546000000    -1.602000000    -3.998000000
C    -3.467000000     0.420000000    -3.222000000
C    -4.168000000     1.363000000    -2.426000000
H    -3.838000000     2.374000000    -2.197000000
C    -2.057000000     0.690000000    -3.870000000
O    -1.540000000    -0.227000000    -4.816000000
H    -1.330000000     0.522000000    -3.061000000
O    -2.004000000     2.031000000    -4.306000000
C    -0.962000000     2.814000000    -3.880000000
C    -1.175000000     3.693000000    -2.836000000
H    -2.164000000     3.938000000    -2.456000000
C    -0.097000000     4.290000000    -2.182000000
O    -0.289000000     4.880000000    -0.937000000
C     1.214000000     4.054000000    -2.656000000
C     2.505000000     4.488000000    -1.885000000
H     3.314000000     4.719000000    -2.581000000
C     3.017000000     3.537000000    -0.807000000
C     4.124000000     2.681000000    -0.956000000
H     4.626000000     2.628000000    -1.918000000
H     2.390000000     5.420000000    -1.327000000
C     1.407000000     3.211000000    -3.741000000
H     2.421000000     3.073000000    -4.107000000
C     0.335000000     2.597000000    -4.402000000
C     0.691000000     1.548000000    -5.526000000
H     1.459000000     1.772000000    -6.269000000
H    -0.168000000     1.571000000    -6.199000000
C     0.815000000     0.108000000    -4.951000000
C     2.086000000    -0.469000000    -4.645000000
H     2.983000000     0.091000000    -4.895000000
C    -0.306000000    -0.634000000    -4.653000000
C    -0.206000000    -1.833000000    -3.958000000
H    -1.116000000    -2.344000000    -3.655000000
C     1.035000000    -2.399000000    -3.785000000
O     1.016000000    -3.598000000    -3.072000000
C     1.403000000    -3.546000000    -1.655000000
C     0.504000000    -4.517000000    -0.901000000
C     1.108000000    -5.398000000     0.047000000
H     2.152000000    -5.486000000     0.337000000
C    -0.836000000    -4.492000000    -1.153000000
H    -1.366000000    -3.834000000    -1.836000000
O     2.782000000    -3.910000000    -1.562000000
H     1.267000000    -2.511000000    -1.308000000
C     2.208000000    -1.699000000    -4.081000000
C     3.610000000    -2.293000000    -3.788000000
H     4.395000000    -2.007000000    -4.490000000
H     3.479000000    -3.362000000    -3.967000000
C     4.096000000    -2.043000000    -2.340000000
C     4.749000000    -0.891000000    -1.979000000
H     5.003000000    -0.050000000    -2.619000000
C     3.662000000    -2.908000000    -1.329000000
C     3.870000000    -2.611000000     0.017000000
H     3.514000000    -3.312000000     0.767000000
C     4.478000000    -1.430000000     0.428000000
O     4.562000000    -1.133000000     1.762000000
C     3.690000000    -0.168000000     2.424000000
C     3.049000000    -0.590000000     3.745000000
C     2.641000000    -1.901000000     3.853000000
H     2.797000000    -2.617000000     3.051000000
C     2.664000000     0.347000000     4.715000000
H     2.929000000     1.399000000     4.648000000
O     4.319000000     1.180000000     2.451000000
H     2.837000000    -0.072000000     1.737000000
C     4.856000000    -0.547000000    -0.605000000
C     5.619000000     0.771000000    -0.244000000
H     6.148000000     1.236000000    -1.078000000
H     6.374000000     0.540000000     0.511000000
C     4.589000000     1.851000000     0.111000000
C     4.060000000     2.059000000     1.372000000
C     3.013000000     2.964000000     1.614000000
H     2.545000000     3.076000000     2.589000000
C     2.529000000     3.677000000     0.538000000
O     1.488000000     4.528000000     0.746000000
C     0.095000000     4.240000000     0.261000000
H     0.067000000     3.154000000     0.085000000
C    -0.997000000     4.474000000     1.264000000
C    -2.296000000     5.001000000     0.934000000
H    -2.472000000     5.276000000    -0.103000000
C    -0.738000000     4.122000000     2.598000000
H     0.283000000     3.887000000     2.887000000
C    -1.707000000     4.372000000     3.588000000
O    -1.476000000     4.193000000     4.962000000
C    -3.005000000     4.798000000     3.212000000
H    -3.765000000     4.799000000     3.989000000
C    -3.264000000     5.186000000     1.847000000
O    -4.502000000     5.669000000     1.480000000
C    -5.234000000     5.137000000     0.404000000
C    -5.252000000     3.695000000     0.300000000
H    -4.653000000     3.212000000     1.068000000
C    -6.073000000     5.879000000    -0.470000000
H    -6.150000000     6.930000000    -0.206000000
C    -6.826000000     5.240000000    -1.499000000
H    -7.506000000     5.852000000    -2.087000000
C    -6.715000000     3.858000000    -1.605000000
H    -7.238000000     3.315000000    -2.388000000
C    -5.888000000     3.072000000    -0.772000000
O    -5.968000000     1.703000000    -0.820000000
C    -5.294000000     0.918000000    -1.708000000
C    -5.809000000    -0.340000000    -1.830000000
H    -6.772000000    -0.486000000    -1.346000000
C    -5.233000000    -1.182000000    -2.696000000
O    -5.776000000    -2.452000000    -2.839000000
C    -5.075000000    -3.610000000    -2.863000000
C    -4.427000000    -4.043000000    -1.676000000
H    -4.373000000    -3.394000000    -0.806000000
C    -5.018000000    -4.330000000    -4.061000000
H    -5.696000000    -3.875000000    -4.778000000
C    -4.229000000    -5.511000000    -4.080000000
H    -4.289000000    -6.086000000    -5.001000000
C    -3.636000000    -5.950000000    -2.905000000
H    -3.013000000    -6.841000000    -2.926000000
C    -3.680000000    -5.177000000    -1.729000000
O    -3.004000000    -5.506000000    -0.664000000
C    -1.690000000    -5.406000000    -0.509000000
C    -1.135000000    -6.324000000     0.421000000
H    -1.803000000    -6.990000000     0.962000000
C     0.243000000    -6.250000000     0.709000000
O     0.663000000    -6.993000000     1.795000000
C     1.562000000    -6.402000000     2.725000000
C     1.140000000    -5.423000000     3.517000000
H     0.105000000    -5.091000000     3.496000000
C     2.922000000    -6.807000000     2.757000000
H     3.255000000    -7.553000000     2.041000000
C     3.753000000    -6.279000000     3.766000000
H     4.771000000    -6.656000000     3.822000000
C     3.315000000    -5.196000000     4.529000000
H     4.058000000    -4.644000000     5.099000000
C     2.023000000    -4.745000000     4.409000000
O     1.557000000    -3.658000000     5.147000000
C     2.028000000    -2.355000000     4.981000000
C     1.652000000    -1.458000000     5.933000000
H     1.224000000    -1.717000000     6.898000000
C     1.872000000    -0.110000000     5.766000000
O     1.485000000     0.732000000     6.824000000
C     1.107000000     2.023000000     6.591000000
C     1.847000000     2.988000000     7.288000000
H     2.647000000     2.637000000     7.934000000
C     1.640000000     4.340000000     7.040000000
H     2.351000000     5.088000000     7.380000000
C     0.603000000     4.709000000     6.158000000
H     0.426000000     5.748000000     5.894000000
C    -0.280000000     3.741000000     5.579000000
C     0.000000000     2.380000000     5.784000000
H    -0.563000000     1.594000000     5.287000000
C     0.387000000    -1.136000000     0.813000000
H     0.875000000    -1.924000000     1.381000000
C     1.054000000    -0.208000000    -0.005000000
H     2.087000000    -0.438000000    -0.253000000
C     0.228000000     0.765000000    -0.619000000
H     0.740000000     1.539000000    -1.352000000
C    -1.147000000     0.897000000    -0.410000000
H    -1.785000000     1.696000000    -0.779000000
C    -1.703000000     0.077000000     0.515000000
H    -2.748000000     0.304000000     0.707000000
C    -0.960000000    -0.933000000     1.145000000
C    -1.646000000    -1.704000000     2.198000000
O    -2.795000000    -1.402000000     2.498000000
O    -1.031000000    -2.546000000     2.830000000
O    -1.256000000    -3.069000000     5.371000000
H    -0.310000000    -3.069000000     5.522000000
H    -1.347000000    -2.916000000     4.430000000
O    -6.076000000    -1.923000000     6.839000000
H    -5.233000000    -2.175000000     6.461000000
H    -6.674000000    -2.624000000     6.581000000
O    -5.548000000     1.709000000     3.063000000
H    -5.602000000     0.754000000     3.027000000
H    -5.171000000     1.896000000     3.923000000
O    -6.437000000    -0.884000000     3.337000000
H    -7.361000000    -0.939000000     3.581000000
H    -6.404000000    -1.235000000     2.447000000
O    -2.742000000     0.852000000     3.782000000
H    -2.928000000     1.269000000     2.941000000
H    -2.836000000    -0.085000000     3.610000000
O    -2.370000000    -7.144000000     3.579000000
H    -2.417000000    -6.246000000     3.251000000
H    -1.530000000    -7.189000000     4.036000000
O    -5.280000000    -6.891000000     3.789000000
H    -6.013000000    -7.157000000     3.233000000
H    -4.594000000    -7.532000000     3.604000000
O    -4.197000000    -2.103000000     4.482000000
H    -5.034000000    -1.645000000     4.407000000
H    -3.669000000    -1.755000000     3.763000000
O    -5.353000000    -4.046000000     1.537000000
H    -5.541000000    -3.125000000     1.353000000
H    -4.489000000    -4.036000000     1.949000000
O    -7.598000000    -4.808000000     2.993000000
H    -8.112000000    -4.676000000     2.197000000
H    -6.690000000    -4.688000000     2.715000000
O    -5.205000000    -1.536000000     1.051000000
H    -5.350000000    -0.910000000     0.341000000
H    -4.272000000    -1.459000000     1.252000000
O    -4.255000000     2.561000000     5.984000000
H    -4.833000000     1.979000000     6.478000000
H    -3.564000000     1.988000000     5.654000000
O    -3.356000000    -3.992000000     6.556000000
H    -2.982000000    -3.659000000     7.372000000
H    -2.766000000    -3.672000000     5.874000000
O    -5.665000000    -5.103000000     5.874000000
H    -4.883000000    -4.672000000     6.219000000
H    -5.356000000    -5.583000000     5.106000000
O    -1.965000000    -2.724000000     8.607000000
H    -2.053000000    -1.878000000     8.168000000
H    -1.031000000    -2.928000000     8.549000000
O    -2.925000000    -4.522000000     2.865000000
H    -2.209000000    -4.009000000     2.492000000
H    -3.183000000    -4.038000000     3.649000000
O    -6.236000000    -6.323000000     0.027000000
H    -5.525000000    -5.720000000     0.242000000
H    -7.004000000    -5.761000000    -0.074000000
O    -2.174000000    -0.724000000     6.487000000
H    -2.345000000    -0.095000000     5.787000000
H    -1.975000000    -1.542000000     6.032000000
O    -2.374000000     1.180000000     8.268000000
H    -2.498000000     0.665000000     9.065000000
H    -2.111000000     0.540000000     7.607000000
