215
-1446.97322
C    -4.183000000    -1.344000000    -3.076000000
H    -3.577000000    -1.993000000    -3.702000000
C    -3.721000000     0.015000000    -2.939000000
C    -4.336000000     0.851000000    -2.006000000
H    -3.927000000     1.849000000    -1.872000000
C    -2.339000000     0.471000000    -3.512000000
O    -1.895000000    -0.400000000    -4.579000000
H    -1.600000000     0.523000000    -2.699000000
O    -2.370000000     1.858000000    -4.061000000
C    -1.310000000     2.601000000    -3.610000000
C    -1.535000000     3.496000000    -2.610000000
H    -2.508000000     3.607000000    -2.138000000
C    -0.425000000     4.188000000    -2.068000000
O    -0.598000000     4.917000000    -0.904000000
C     0.871000000     3.966000000    -2.651000000
C     2.024000000     4.826000000    -2.147000000
H     2.642000000     5.080000000    -3.010000000
C     2.676000000     4.111000000    -1.060000000
C     3.595000000     3.069000000    -1.394000000
H     3.984000000     2.836000000    -2.382000000
H     1.738000000     5.820000000    -1.794000000
C     1.052000000     3.063000000    -3.658000000
H     2.000000000     2.940000000    -4.175000000
C    -0.038000000     2.393000000    -4.205000000
C     0.282000000     1.424000000    -5.314000000
H     0.989000000     1.842000000    -6.033000000
H    -0.589000000     1.415000000    -5.973000000
C     0.467000000     0.054000000    -4.768000000
C     1.799000000    -0.494000000    -4.617000000
H     2.629000000     0.120000000    -4.959000000
C    -0.586000000    -0.844000000    -4.597000000
C    -0.344000000    -2.156000000    -4.167000000
H    -1.196000000    -2.801000000    -3.969000000
C     0.948000000    -2.635000000    -3.961000000
O     1.180000000    -3.789000000    -3.309000000
C     1.370000000    -3.493000000    -1.844000000
C     0.553000000    -4.535000000    -1.028000000
C     0.805000000    -4.640000000     0.346000000
H     1.542000000    -3.978000000     0.794000000
C    -0.588000000    -5.157000000    -1.580000000
H    -0.852000000    -4.960000000    -2.616000000
O     2.801000000    -3.536000000    -1.445000000
H     0.994000000    -2.484000000    -1.621000000
C     2.015000000    -1.726000000    -4.099000000
C     3.407000000    -2.152000000    -3.834000000
H     4.102000000    -1.737000000    -4.567000000
H     3.512000000    -3.233000000    -3.942000000
C     3.795000000    -1.677000000    -2.386000000
C     4.422000000    -0.401000000    -2.178000000
H     4.523000000     0.210000000    -3.071000000
C     3.520000000    -2.443000000    -1.305000000
C     3.922000000    -2.033000000    -0.050000000
H     3.807000000    -2.722000000     0.782000000
C     4.538000000    -0.805000000     0.143000000
O     4.811000000    -0.444000000     1.432000000
C     3.836000000     0.442000000     2.031000000
C     3.580000000    -0.073000000     3.463000000
C     3.660000000    -1.502000000     3.737000000
H     4.046000000    -2.267000000     3.069000000
C     3.161000000     0.805000000     4.534000000
H     3.145000000     1.887000000     4.425000000
O     4.349000000     1.775000000     1.987000000
H     2.952000000     0.348000000     1.383000000
C     4.788000000     0.092000000    -0.927000000
C     5.409000000     1.426000000    -0.729000000
H     5.956000000     1.835000000    -1.581000000
H     6.196000000     1.325000000     0.022000000
C     4.277000000     2.403000000    -0.362000000
C     3.914000000     2.603000000     0.994000000
C     2.957000000     3.545000000     1.255000000
H     2.653000000     3.573000000     2.298000000
C     2.300000000     4.301000000     0.344000000
O     1.148000000     4.939000000     0.663000000
C    -0.099000000     4.294000000     0.292000000
H     0.230000000     3.279000000     0.026000000
C    -1.174000000     4.357000000     1.345000000
C    -2.490000000     4.663000000     1.111000000
H    -2.780000000     5.070000000     0.146000000
C    -0.819000000     3.938000000     2.662000000
H     0.192000000     3.663000000     2.949000000
C    -1.794000000     3.851000000     3.642000000
O    -1.555000000     3.239000000     4.864000000
C    -3.100000000     4.182000000     3.392000000
H    -3.815000000     4.204000000     4.210000000
C    -3.445000000     4.573000000     2.134000000
O    -4.748000000     4.896000000     1.969000000
C    -5.447000000     4.417000000     0.822000000
C    -5.587000000     3.044000000     0.735000000
H    -5.343000000     2.323000000     1.512000000
C    -5.803000000     5.234000000    -0.183000000
H    -5.724000000     6.292000000     0.052000000
C    -6.339000000     4.749000000    -1.347000000
H    -6.684000000     5.515000000    -2.038000000
C    -6.436000000     3.374000000    -1.531000000
H    -6.895000000     2.922000000    -2.407000000
C    -6.015000000     2.536000000    -0.489000000
O    -6.172000000     1.188000000    -0.504000000
C    -5.419000000     0.354000000    -1.279000000
C    -5.853000000    -0.980000000    -1.464000000
H    -6.640000000    -1.460000000    -0.889000000
C    -5.226000000    -1.846000000    -2.328000000
O    -5.659000000    -3.175000000    -2.465000000
C    -4.824000000    -4.155000000    -2.833000000
C    -4.126000000    -4.871000000    -1.881000000
H    -4.165000000    -4.603000000    -0.828000000
C    -4.779000000    -4.528000000    -4.152000000
H    -5.390000000    -3.925000000    -4.818000000
C    -3.885000000    -5.507000000    -4.592000000
H    -3.901000000    -5.877000000    -5.614000000
C    -3.146000000    -6.153000000    -3.585000000
H    -2.411000000    -6.862000000    -3.957000000
C    -3.214000000    -5.888000000    -2.245000000
O    -2.518000000    -6.588000000    -1.290000000
C    -1.362000000    -6.006000000    -0.751000000
C    -1.019000000    -6.235000000     0.593000000
H    -1.762000000    -6.781000000     1.169000000
C    -0.034000000    -5.468000000     1.217000000
O     0.253000000    -5.491000000     2.562000000
C     1.512000000    -5.413000000     3.143000000
C     1.851000000    -4.301000000     3.880000000
H     1.118000000    -3.503000000     3.975000000
C     2.391000000    -6.465000000     2.979000000
H     2.099000000    -7.390000000     2.490000000
C     3.600000000    -6.522000000     3.712000000
H     4.342000000    -7.313000000     3.637000000
C     3.907000000    -5.400000000     4.513000000
H     4.869000000    -5.264000000     4.999000000
C     3.089000000    -4.274000000     4.532000000
O     3.531000000    -3.237000000     5.316000000
C     3.312000000    -1.922000000     5.029000000
C     2.835000000    -1.080000000     6.038000000
H     2.640000000    -1.435000000     7.046000000
C     2.672000000     0.281000000     5.755000000
O     2.232000000     1.105000000     6.839000000
C     1.481000000     2.236000000     6.707000000
C     1.905000000     3.481000000     7.215000000
H     2.710000000     3.452000000     7.945000000
C     1.099000000     4.613000000     6.988000000
H     1.348000000     5.584000000     7.408000000
C    -0.032000000     4.538000000     6.159000000
H    -0.659000000     5.411000000     6.001000000
C    -0.396000000     3.321000000     5.593000000
C     0.295000000     2.158000000     5.965000000
H    -0.007000000     1.182000000     5.594000000
C     0.180000000    -1.081000000     1.290000000
H     0.641000000    -2.050000000     1.463000000
C     0.499000000    -0.428000000     0.065000000
H     1.249000000    -0.827000000    -0.613000000
C    -0.262000000     0.651000000    -0.354000000
H    -0.015000000     1.127000000    -1.323000000
C    -1.423000000     0.999000000     0.326000000
H    -2.097000000     1.780000000    -0.017000000
C    -1.770000000     0.307000000     1.459000000
H    -2.727000000     0.469000000     1.947000000
C    -0.995000000    -0.736000000     1.973000000
C    -1.588000000    -1.488000000     3.167000000
O    -2.590000000    -1.107000000     3.713000000
O    -0.944000000    -2.407000000     3.595000000
O    -0.032000000    -1.386000000     5.865000000
H     0.711000000    -0.859000000     5.572000000
H    -0.429000000    -1.712000000     5.058000000
O    -7.038000000    -2.533000000     1.573000000
H    -7.782000000    -2.715000000     0.999000000
H    -7.261000000    -1.706000000     1.999000000
O    -6.814000000    -2.323000000     6.715000000
H    -7.292000000    -3.109000000     6.449000000
H    -6.227000000    -2.140000000     5.981000000
O    -6.984000000    -4.194000000     4.248000000
H    -7.705000000    -3.692000000     3.867000000
H    -6.215000000    -3.638000000     4.127000000
O    -3.947000000     0.319000000     5.458000000
H    -3.475000000     0.412000000     6.286000000
H    -3.321000000    -0.106000000     4.872000000
O    -3.663000000    -7.964000000     4.203000000
H    -3.333000000    -7.171000000     4.624000000
H    -4.267000000    -7.646000000     3.531000000
O    -5.430000000    -1.817000000     4.683000000
H    -5.100000000    -0.921000000     4.742000000
H    -4.674000000    -2.331000000     4.397000000
O    -5.103000000    -6.689000000     2.350000000
H    -5.915000000    -6.187000000     2.277000000
H    -4.412000000    -6.027000000     2.356000000
O     0.087000000     0.484000000     9.036000000
H     0.215000000    -0.426000000     8.768000000
H    -0.833000000     0.663000000     8.845000000
O    -4.200000000    -3.051000000     1.992000000
H    -5.063000000    -2.914000000     1.601000000
H    -3.855000000    -2.168000000     2.126000000
O    -6.467000000     1.445000000     4.864000000
H    -6.819000000     1.381000000     5.752000000
H    -5.519000000     1.370000000     4.976000000
O    -2.317000000    -3.744000000     5.738000000
H    -2.226000000    -4.692000000     5.837000000
H    -2.013000000    -3.567000000     4.848000000
O    -2.719000000    -5.293000000     2.880000000
H    -1.764000000    -5.234000000     2.884000000
H    -3.012000000    -4.420000000     2.616000000
O     0.524000000    -3.035000000     7.754000000
H     0.516000000    -3.876000000     7.298000000
H     0.478000000    -2.383000000     7.055000000
O     1.153000000    -5.716000000     7.019000000
H     0.605000000    -6.119000000     6.345000000
H     0.866000000    -6.124000000     7.836000000
O    -2.354000000    -1.796000000     7.656000000
H    -2.934000000    -2.343000000     7.126000000
H    -1.558000000    -1.711000000     7.131000000
O    -4.420000000    -3.926000000     8.869000000
H    -3.772000000    -3.579000000     9.482000000
H    -3.999000000    -3.859000000     8.012000000
O    -2.527000000     0.808000000     8.480000000
H    -3.298000000     1.146000000     8.935000000
H    -2.773000000    -0.079000000     8.217000000
O    -2.418000000    -6.484000000     6.416000000
H    -1.782000000    -7.125000000     6.098000000
H    -2.728000000    -6.846000000     7.246000000
