215
-1446.12873
C    -3.737000000    -2.186000000    -2.553000000
H    -2.898000000    -2.864000000    -2.691000000
C    -3.618000000    -0.841000000    -2.880000000
C    -4.611000000     0.068000000    -2.465000000
H    -4.542000000     1.145000000    -2.599000000
C    -2.359000000    -0.306000000    -3.457000000
O    -1.884000000    -1.195000000    -4.535000000
H    -1.658000000    -0.304000000    -2.609000000
O    -2.511000000     0.987000000    -3.955000000
C    -1.618000000     1.962000000    -3.701000000
C    -1.950000000     2.835000000    -2.684000000
H    -2.946000000     2.900000000    -2.254000000
C    -1.005000000     3.698000000    -2.233000000
O    -1.288000000     4.547000000    -1.144000000
C     0.225000000     3.771000000    -2.850000000
C     1.316000000     4.697000000    -2.382000000
H     1.982000000     4.916000000    -3.218000000
C     2.171000000     4.057000000    -1.273000000
C     3.420000000     3.474000000    -1.548000000
H     3.656000000     3.456000000    -2.609000000
H     0.853000000     5.647000000    -2.109000000
C     0.528000000     2.865000000    -3.921000000
H     1.532000000     2.957000000    -4.329000000
C    -0.381000000     1.934000000    -4.300000000
C    -0.094000000     1.032000000    -5.491000000
H     0.680000000     1.485000000    -6.115000000
H    -0.977000000     0.884000000    -6.117000000
C     0.359000000    -0.339000000    -4.994000000
C     1.692000000    -0.536000000    -4.804000000
H     2.344000000     0.308000000    -5.014000000
C    -0.492000000    -1.344000000    -4.660000000
C     0.000000000    -2.594000000    -4.178000000
H    -0.636000000    -3.430000000    -3.896000000
C     1.315000000    -2.654000000    -3.791000000
O     1.650000000    -3.637000000    -2.924000000
C     1.692000000    -3.270000000    -1.512000000
C     0.960000000    -4.358000000    -0.713000000
C     1.320000000    -4.418000000     0.659000000
H     2.014000000    -3.705000000     1.096000000
C     0.024000000    -5.230000000    -1.289000000
H    -0.296000000    -5.123000000    -2.322000000
O     3.152000000    -3.147000000    -1.176000000
H     1.108000000    -2.349000000    -1.367000000
C     2.204000000    -1.618000000    -4.087000000
C     3.647000000    -1.625000000    -3.682000000
H     4.188000000    -0.921000000    -4.317000000
H     3.913000000    -2.682000000    -3.750000000
C     3.989000000    -1.173000000    -2.265000000
C     4.675000000     0.071000000    -2.081000000
H     4.794000000     0.792000000    -2.886000000
C     3.799000000    -1.978000000    -1.151000000
C     4.120000000    -1.528000000     0.088000000
H     4.008000000    -2.204000000     0.933000000
C     4.723000000    -0.271000000     0.271000000
O     4.927000000     0.132000000     1.601000000
C     3.928000000     0.984000000     2.191000000
C     3.758000000     0.671000000     3.680000000
C     3.582000000    -0.641000000     4.019000000
H     3.693000000    -1.451000000     3.303000000
C     3.426000000     1.681000000     4.603000000
H     3.476000000     2.742000000     4.372000000
O     4.334000000     2.348000000     1.893000000
H     2.998000000     0.785000000     1.639000000
C     5.000000000     0.558000000    -0.819000000
C     5.395000000     2.011000000    -0.730000000
H     5.872000000     2.280000000    -1.675000000
H     6.138000000     2.188000000     0.051000000
C     4.105000000     2.816000000    -0.485000000
C     3.653000000     2.934000000     0.832000000
C     2.446000000     3.535000000     1.138000000
H     2.075000000     3.548000000     2.160000000
C     1.663000000     4.077000000     0.052000000
O     0.530000000     4.657000000     0.453000000
C    -0.724000000     4.073000000     0.121000000
H    -0.570000000     3.003000000    -0.079000000
C    -1.690000000     4.025000000     1.155000000
C    -3.061000000     3.849000000     0.931000000
H    -3.414000000     3.833000000    -0.097000000
C    -1.244000000     3.937000000     2.497000000
H    -0.196000000     4.152000000     2.692000000
C    -2.085000000     3.714000000     3.592000000
O    -1.727000000     3.600000000     4.915000000
C    -3.441000000     3.526000000     3.286000000
H    -4.215000000     3.371000000     4.033000000
C    -3.974000000     3.726000000     1.956000000
O    -5.314000000     3.609000000     1.774000000
C    -5.988000000     3.419000000     0.572000000
C    -6.055000000     2.110000000     0.089000000
H    -5.768000000     1.294000000     0.746000000
C    -6.452000000     4.520000000    -0.145000000
H    -6.477000000     5.544000000     0.220000000
C    -6.989000000     4.176000000    -1.453000000
H    -7.459000000     4.953000000    -2.050000000
C    -7.045000000     2.884000000    -1.896000000
H    -7.513000000     2.747000000    -2.867000000
C    -6.598000000     1.810000000    -1.133000000
O    -6.817000000     0.470000000    -1.517000000
C    -5.784000000    -0.390000000    -1.918000000
C    -5.889000000    -1.725000000    -1.707000000
H    -6.844000000    -2.120000000    -1.370000000
C    -4.916000000    -2.636000000    -1.991000000
O    -5.176000000    -3.954000000    -1.746000000
C    -4.310000000    -4.953000000    -2.187000000
C    -3.247000000    -5.390000000    -1.358000000
H    -3.125000000    -4.873000000    -0.410000000
C    -4.623000000    -5.650000000    -3.350000000
H    -5.477000000    -5.434000000    -3.986000000
C    -3.729000000    -6.591000000    -3.831000000
H    -3.898000000    -7.055000000    -4.799000000
C    -2.597000000    -6.947000000    -3.132000000
H    -1.940000000    -7.704000000    -3.554000000
C    -2.448000000    -6.429000000    -1.809000000
O    -1.531000000    -7.007000000    -0.952000000
C    -0.564000000    -6.174000000    -0.491000000
C    -0.173000000    -6.240000000     0.833000000
H    -0.630000000    -7.015000000     1.442000000
C     0.772000000    -5.462000000     1.482000000
O     0.981000000    -5.613000000     2.849000000
C     2.103000000    -5.082000000     3.466000000
C     1.964000000    -3.891000000     4.171000000
H     0.967000000    -3.530000000     4.411000000
C     3.430000000    -5.614000000     3.265000000
H     3.519000000    -6.472000000     2.603000000
C     4.504000000    -5.008000000     3.844000000
H     5.502000000    -5.385000000     3.640000000
C     4.339000000    -3.948000000     4.743000000
H     5.177000000    -3.443000000     5.219000000
C     3.082000000    -3.389000000     4.835000000
O     2.949000000    -2.302000000     5.648000000
C     3.272000000    -0.999000000     5.296000000
C     3.027000000    -0.009000000     6.278000000
H     2.710000000    -0.317000000     7.271000000
C     3.108000000     1.308000000     5.894000000
O     2.532000000     2.275000000     6.632000000
C     1.619000000     3.203000000     6.250000000
C     1.987000000     4.594000000     6.412000000
H     2.910000000     4.885000000     6.907000000
C     1.125000000     5.564000000     5.966000000
H     1.435000000     6.604000000     6.038000000
C    -0.076000000     5.147000000     5.454000000
H    -0.835000000     5.887000000     5.215000000
C    -0.431000000     3.836000000     5.271000000
C     0.372000000     2.804000000     5.729000000
H     0.070000000     1.761000000     5.682000000
C    -0.110000000    -0.888000000     1.845000000
H     0.539000000    -1.511000000     2.455000000
C     0.442000000    -0.390000000     0.646000000
H     1.500000000    -0.538000000     0.445000000
C    -0.324000000     0.256000000    -0.287000000
H     0.068000000     0.627000000    -1.240000000
C    -1.699000000     0.451000000    -0.018000000
H    -2.347000000     0.969000000    -0.721000000
C    -2.267000000    -0.084000000     1.158000000
H    -3.275000000     0.217000000     1.428000000
C    -1.480000000    -0.713000000     2.118000000
C    -2.018000000    -1.077000000     3.448000000
O    -3.265000000    -1.375000000     3.509000000
O    -1.287000000    -1.391000000     4.271000000
O    -0.003000000    -1.288000000     6.767000000
H     0.602000000    -2.012000000     6.930000000
H    -0.223000000    -1.365000000     5.838000000
O    -6.777000000    -1.411000000     2.144000000
H    -6.925000000    -0.538000000     2.508000000
H    -7.391000000    -1.472000000     1.412000000
O    -7.579000000    -1.978000000     6.494000000
H    -7.707000000    -2.831000000     6.080000000
H    -6.829000000    -1.599000000     6.035000000
O    -7.300000000     1.425000000     3.748000000
H    -6.846000000     1.625000000     4.567000000
H    -7.934000000     0.748000000     3.985000000
O    -2.710000000     0.823000000     6.300000000
H    -2.239000000     1.000000000     5.485000000
H    -3.119000000    -0.031000000     6.159000000
O    -5.053000000    -1.650000000     9.697000000
H    -4.221000000    -1.565000000     9.231000000
H    -5.426000000    -2.469000000     9.373000000
O    -5.507000000    -1.008000000     5.100000000
H    -5.380000000    -0.119000000     5.433000000
H    -5.020000000    -1.027000000     4.276000000
O    -3.833000000    -7.588000000     1.693000000
H    -4.702000000    -7.264000000     1.929000000
H    -3.278000000    -6.809000000     1.697000000
O    -4.521000000    -3.158000000     2.039000000
H    -5.401000000    -2.792000000     1.952000000
H    -3.993000000    -2.434000000     2.376000000
O    -7.376000000    -4.066000000     2.529000000
H    -7.042000000    -3.171000000     2.463000000
H    -7.455000000    -4.224000000     3.469000000
O    -5.190000000     1.923000000     6.057000000
H    -5.479000000     2.278000000     6.898000000
H    -4.363000000     1.484000000     6.255000000
O    -3.105000000    -2.332000000     6.020000000
H    -2.250000000    -2.138000000     5.637000000
H    -3.728000000    -2.157000000     5.314000000
O    -2.826000000    -5.302000000     2.928000000
H    -2.805000000    -4.837000000     3.764000000
H    -3.415000000    -4.783000000     2.380000000
O     1.011000000    -4.238000000     7.724000000
H     1.010000000    -5.090000000     7.288000000
H     1.438000000    -4.400000000     8.565000000
O    -2.158000000    -2.429000000     8.551000000
H    -2.716000000    -2.484000000     7.776000000
H    -1.283000000    -2.648000000     8.232000000
O    -4.068000000    -5.164000000     6.904000000
H    -4.179000000    -4.519000000     7.603000000
H    -4.165000000    -4.660000000     6.096000000
O    -2.161000000     0.410000000     8.932000000
H    -2.211000000     0.600000000     7.996000000
H    -1.935000000    -0.519000000     8.976000000
O    -4.318000000     4.761000000     6.322000000
H    -4.735000000     4.093000000     6.865000000
H    -3.473000000     4.381000000     6.080000000
O    -1.847000000    -6.883000000     7.580000000
H    -2.361000000    -6.199000000     7.152000000
H    -1.738000000    -6.573000000     8.479000000
