215
-1446.57818
C    -4.335000000    -1.923000000    -2.912000000
H    -3.516000000    -2.557000000    -3.243000000
C    -4.139000000    -0.585000000    -3.145000000
C    -5.080000000     0.374000000    -2.675000000
H    -4.867000000     1.436000000    -2.768000000
C    -2.781000000    -0.053000000    -3.675000000
O    -2.196000000    -0.944000000    -4.659000000
H    -2.241000000    -0.046000000    -2.717000000
O    -2.884000000     1.300000000    -4.219000000
C    -1.869000000     2.113000000    -3.873000000
C    -2.057000000     3.009000000    -2.817000000
H    -2.991000000     3.062000000    -2.264000000
C    -1.053000000     3.876000000    -2.447000000
O    -1.214000000     4.564000000    -1.276000000
C     0.208000000     3.830000000    -3.110000000
C     1.422000000     4.697000000    -2.702000000
H     2.049000000     5.104000000    -3.498000000
C     2.354000000     4.106000000    -1.609000000
C     3.553000000     3.369000000    -1.932000000
H     3.862000000     3.185000000    -2.958000000
H     0.998000000     5.585000000    -2.226000000
C     0.359000000     2.901000000    -4.177000000
H     1.300000000     3.011000000    -4.710000000
C    -0.638000000     2.053000000    -4.560000000
C    -0.323000000     0.902000000    -5.594000000
H     0.393000000     1.221000000    -6.354000000
H    -1.213000000     0.746000000    -6.207000000
C     0.097000000    -0.343000000    -4.895000000
C     1.447000000    -0.528000000    -4.545000000
H     2.217000000     0.136000000    -4.931000000
C    -0.854000000    -1.220000000    -4.453000000
C    -0.520000000    -2.323000000    -3.685000000
H    -1.218000000    -3.072000000    -3.322000000
C     0.853000000    -2.518000000    -3.395000000
O     1.204000000    -3.677000000    -2.686000000
C     1.621000000    -3.353000000    -1.318000000
C     0.893000000    -4.225000000    -0.198000000
C     1.591000000    -4.467000000     1.000000000
H     2.565000000    -4.054000000     1.247000000
C    -0.303000000    -4.852000000    -0.491000000
H    -0.744000000    -4.548000000    -1.436000000
O     3.010000000    -3.445000000    -1.208000000
H     1.356000000    -2.317000000    -1.058000000
C     1.866000000    -1.681000000    -3.893000000
C     3.334000000    -2.012000000    -3.784000000
H     3.893000000    -1.709000000    -4.672000000
H     3.378000000    -3.103000000    -3.790000000
C     3.918000000    -1.595000000    -2.482000000
C     4.442000000    -0.292000000    -2.392000000
H     4.496000000     0.262000000    -3.326000000
C     3.713000000    -2.308000000    -1.278000000
C     4.256000000    -1.801000000    -0.113000000
H     4.170000000    -2.436000000     0.766000000
C     4.840000000    -0.549000000    -0.020000000
O     5.201000000    -0.048000000     1.242000000
C     4.191000000     0.889000000     1.742000000
C     3.859000000     0.577000000     3.227000000
C     3.970000000    -0.737000000     3.720000000
H     4.246000000    -1.540000000     3.040000000
C     3.519000000     1.642000000     4.136000000
H     3.395000000     2.657000000     3.766000000
O     4.432000000     2.308000000     1.453000000
H     3.316000000     0.663000000     1.116000000
C     4.882000000     0.239000000    -1.168000000
C     5.324000000     1.679000000    -1.130000000
H     5.909000000     1.971000000    -2.004000000
H     6.032000000     1.759000000    -0.303000000
C     4.201000000     2.673000000    -0.871000000
C     3.758000000     2.797000000     0.419000000
C     2.663000000     3.546000000     0.745000000
H     2.553000000     3.755000000     1.806000000
C     1.930000000     4.205000000    -0.252000000
O     0.778000000     4.780000000     0.275000000
C    -0.484000000     4.057000000    -0.086000000
H    -0.157000000     3.034000000    -0.325000000
C    -1.512000000     3.922000000     1.130000000
C    -2.873000000     3.867000000     0.930000000
H    -3.133000000     4.080000000    -0.104000000
C    -1.012000000     3.712000000     2.418000000
H     0.032000000     3.908000000     2.648000000
C    -1.869000000     3.461000000     3.488000000
O    -1.453000000     3.072000000     4.729000000
C    -3.222000000     3.322000000     3.205000000
H    -3.935000000     3.093000000     3.994000000
C    -3.748000000     3.654000000     2.007000000
O    -5.163000000     3.663000000     1.852000000
C    -5.767000000     3.531000000     0.590000000
C    -6.046000000     2.237000000     0.125000000
H    -5.862000000     1.379000000     0.766000000
C    -6.109000000     4.588000000    -0.204000000
H    -5.880000000     5.612000000     0.081000000
C    -6.616000000     4.389000000    -1.511000000
H    -6.943000000     5.184000000    -2.177000000
C    -6.959000000     3.094000000    -1.918000000
H    -7.373000000     2.908000000    -2.905000000
C    -6.791000000     2.080000000    -1.043000000
O    -7.127000000     0.850000000    -1.458000000
C    -6.271000000    -0.107000000    -1.944000000
C    -6.454000000    -1.500000000    -1.855000000
H    -7.456000000    -1.817000000    -1.576000000
C    -5.496000000    -2.403000000    -2.297000000
O    -5.733000000    -3.754000000    -2.109000000
C    -4.840000000    -4.766000000    -2.000000000
C    -3.927000000    -4.903000000    -0.935000000
H    -3.860000000    -4.095000000    -0.210000000
C    -4.846000000    -5.761000000    -2.960000000
H    -5.674000000    -5.688000000    -3.661000000
C    -4.064000000    -6.948000000    -2.819000000
H    -4.201000000    -7.790000000    -3.492000000
C    -3.124000000    -7.056000000    -1.806000000
H    -2.485000000    -7.933000000    -1.741000000
C    -3.024000000    -6.023000000    -0.816000000
O    -2.206000000    -6.131000000     0.273000000
C    -0.949000000    -5.613000000     0.486000000
C    -0.333000000    -5.795000000     1.756000000
H    -0.765000000    -6.484000000     2.478000000
C     0.954000000    -5.297000000     1.983000000
O     1.518000000    -5.579000000     3.219000000
C     2.649000000    -5.055000000     3.704000000
C     2.668000000    -3.830000000     4.368000000
H     1.766000000    -3.252000000     4.552000000
C     3.836000000    -5.750000000     3.437000000
H     3.798000000    -6.646000000     2.823000000
C     5.034000000    -5.272000000     3.955000000
H     5.928000000    -5.789000000     3.615000000
C     5.055000000    -4.122000000     4.694000000
H     5.962000000    -3.623000000     5.026000000
C     3.897000000    -3.470000000     4.967000000
O     4.021000000    -2.248000000     5.561000000
C     3.681000000    -1.050000000     5.054000000
C     3.474000000     0.005000000     5.961000000
H     3.386000000    -0.127000000     7.037000000
C     3.328000000     1.323000000     5.550000000
O     2.996000000     2.357000000     6.334000000
C     1.958000000     3.198000000     6.054000000
C     2.061000000     4.538000000     6.421000000
H     2.887000000     4.856000000     7.052000000
C     1.027000000     5.415000000     6.153000000
H     1.273000000     6.455000000     6.353000000
C    -0.166000000     4.984000000     5.556000000
H    -1.032000000     5.598000000     5.323000000
C    -0.329000000     3.598000000     5.290000000
C     0.766000000     2.753000000     5.480000000
H     0.595000000     1.735000000     5.140000000
C     0.545000000    -0.519000000     1.660000000
H     1.378000000    -0.861000000     2.270000000
C     0.847000000    -0.169000000     0.368000000
H     1.859000000    -0.205000000    -0.027000000
C    -0.148000000     0.320000000    -0.430000000
H     0.005000000     0.673000000    -1.422000000
C    -1.451000000     0.439000000    -0.025000000
H    -2.194000000     0.905000000    -0.666000000
C    -1.736000000     0.049000000     1.303000000
H    -2.745000000     0.228000000     1.665000000
C    -0.792000000    -0.514000000     2.131000000
C    -1.126000000    -1.143000000     3.481000000
O    -2.263000000    -1.437000000     3.619000000
O    -0.286000000    -1.404000000     4.355000000
O     0.113000000    -0.416000000     6.684000000
H     0.739000000    -1.121000000     6.852000000
H    -0.033000000    -0.445000000     5.739000000
O    -5.057000000    -4.794000000     7.961000000
H    -4.818000000    -4.302000000     7.175000000
H    -5.704000000    -5.430000000     7.657000000
O    -2.812000000     0.804000000     5.391000000
H    -2.088000000     1.298000000     5.006000000
H    -2.939000000     0.064000000     4.798000000
O    -2.738000000    -6.718000000     7.023000000
H    -3.439000000    -6.085000000     6.871000000
H    -2.162000000    -6.290000000     7.656000000
O    -6.366000000    -1.180000000     5.126000000
H    -6.870000000    -0.868000000     4.375000000
H    -6.144000000    -0.385000000     5.612000000
O    -4.202000000    -6.261000000     2.540000000
H    -4.908000000    -6.086000000     1.918000000
H    -3.640000000    -5.488000000     2.489000000
O    -2.401000000    -8.105000000     3.500000000
H    -2.218000000    -8.568000000     2.682000000
H    -2.940000000    -7.359000000     3.236000000
O    -4.651000000    -1.238000000     2.594000000
H    -5.005000000    -0.654000000     3.265000000
H    -3.743000000    -1.384000000     2.858000000
O    -6.832000000    -3.241000000     1.842000000
H    -6.075000000    -2.655000000     1.860000000
H    -7.168000000    -3.226000000     2.738000000
O    -5.392000000     1.414000000     5.965000000
H    -5.318000000     2.279000000     6.369000000
H    -4.517000000     1.236000000     5.618000000
O    -1.575000000    -3.372000000     5.953000000
H    -1.260000000    -2.588000000     5.502000000
H    -2.517000000    -3.232000000     6.048000000
O    -7.086000000    -4.432000000     4.809000000
H    -6.731000000    -5.320000000     4.751000000
H    -6.461000000    -3.960000000     5.359000000
O    -2.734000000    -3.834000000     2.919000000
H    -1.896000000    -4.003000000     2.489000000
H    -2.567000000    -3.077000000     3.481000000
O     1.146000000    -2.752000000     7.925000000
H     0.850000000    -3.487000000     7.388000000
H     0.584000000    -2.782000000     8.700000000
O     0.122000000     1.352000000     9.197000000
H     0.858000000     1.089000000     9.750000000
H     0.143000000     0.738000000     8.463000000
O    -1.699000000    -2.200000000     8.735000000
H    -1.515000000    -2.453000000     7.831000000
H    -2.130000000    -1.348000000     8.663000000
O    -4.670000000    -3.647000000     5.630000000
H    -5.038000000    -2.825000000     5.305000000
H    -4.298000000    -4.066000000     4.854000000
O    -3.724000000    -0.343000000     7.806000000
H    -3.306000000     0.221000000     7.155000000
H    -4.485000000    -0.707000000     7.354000000
O     0.432000000    -5.560000000     6.336000000
H    -0.113000000    -5.138000000     5.672000000
H    -0.116000000    -5.576000000     7.120000000
