215
-1436.00224
C    -2.733000000     1.255000000    -4.944000000
H    -3.010000000     0.296000000    -5.375000000
C    -1.385000000     1.640000000    -4.620000000
C    -1.188000000     2.927000000    -4.190000000
H    -0.194000000     3.167000000    -3.823000000
C    -0.225000000     0.635000000    -4.510000000
O    -0.532000000    -0.624000000    -5.007000000
H    -0.007000000     0.491000000    -3.441000000
O     1.122000000     1.039000000    -5.132000000
C     2.264000000     0.832000000    -4.346000000
C     2.605000000     1.751000000    -3.371000000
H     2.113000000     2.720000000    -3.341000000
C     3.558000000     1.484000000    -2.462000000
O     3.864000000     2.391000000    -1.514000000
C     4.187000000     0.227000000    -2.408000000
C     5.265000000    -0.080000000    -1.436000000
H     6.102000000    -0.646000000    -1.850000000
C     4.680000000    -0.548000000    -0.119000000
C     4.527000000    -1.866000000     0.106000000
H     4.702000000    -2.591000000    -0.684000000
H     5.746000000     0.874000000    -1.210000000
C     3.771000000    -0.700000000    -3.338000000
H     4.186000000    -1.704000000    -3.293000000
C     2.826000000    -0.462000000    -4.315000000
C     2.253000000    -1.710000000    -5.061000000
H     2.984000000    -2.517000000    -5.139000000
H     1.942000000    -1.534000000    -6.093000000
C     1.068000000    -2.313000000    -4.341000000
C     1.348000000    -3.489000000    -3.563000000
H     2.360000000    -3.874000000    -3.461000000
C    -0.225000000    -1.790000000    -4.336000000
C    -1.204000000    -2.442000000    -3.661000000
H    -2.250000000    -2.167000000    -3.765000000
C    -0.894000000    -3.530000000    -2.817000000
O    -2.007000000    -4.024000000    -2.126000000
C    -2.028000000    -3.698000000    -0.721000000
C    -3.299000000    -3.040000000    -0.190000000
C    -3.574000000    -3.067000000     1.209000000
H    -2.828000000    -3.453000000     1.899000000
C    -4.314000000    -2.540000000    -1.071000000
H    -4.216000000    -2.648000000    -2.149000000
O    -1.549000000    -4.792000000     0.062000000
H    -1.351000000    -2.837000000    -0.618000000
C     0.380000000    -4.052000000    -2.715000000
C     0.535000000    -5.241000000    -1.884000000
H     1.344000000    -5.817000000    -2.339000000
H    -0.385000000    -5.828000000    -1.908000000
C     0.775000000    -4.856000000    -0.487000000
C     2.102000000    -4.604000000    -0.006000000
H     2.941000000    -4.830000000    -0.659000000
C    -0.277000000    -4.700000000     0.421000000
C    -0.006000000    -4.320000000     1.790000000
H    -0.859000000    -4.190000000     2.451000000
C     1.322000000    -3.903000000     2.155000000
O     1.443000000    -3.394000000     3.403000000
C     1.932000000    -2.009000000     3.619000000
C     1.172000000    -1.408000000     4.812000000
C     0.050000000    -2.061000000     5.363000000
H    -0.264000000    -3.026000000     4.971000000
C     1.557000000    -0.219000000     5.346000000
H     2.478000000     0.275000000     5.047000000
O     3.317000000    -1.827000000     3.583000000
H     1.552000000    -1.369000000     2.809000000
C     2.337000000    -4.037000000     1.240000000
C     3.807000000    -3.781000000     1.603000000
H     4.504000000    -4.403000000     1.038000000
H     3.988000000    -4.090000000     2.635000000
C     4.081000000    -2.325000000     1.384000000
C     3.754000000    -1.376000000     2.379000000
C     3.904000000    -0.041000000     2.179000000
H     3.818000000     0.684000000     2.985000000
C     4.365000000     0.354000000     0.951000000
O     4.488000000     1.722000000     0.737000000
C     3.399000000     2.230000000    -0.121000000
H     2.535000000     1.549000000    -0.130000000
C     2.999000000     3.630000000     0.421000000
C     2.885000000     4.731000000    -0.392000000
H     3.294000000     4.750000000    -1.398000000
C     2.630000000     3.711000000     1.801000000
H     2.643000000     2.813000000     2.412000000
C     2.023000000     4.891000000     2.250000000
O     1.408000000     4.906000000     3.482000000
C     1.833000000     5.976000000     1.407000000
H     1.236000000     6.797000000     1.796000000
C     2.211000000     5.846000000     0.058000000
O     1.846000000     6.863000000    -0.904000000
C     1.062000000     6.700000000    -2.099000000
C    -0.044000000     5.761000000    -2.074000000
H    -0.327000000     5.224000000    -1.171000000
C     1.377000000     7.399000000    -3.248000000
H     2.174000000     8.136000000    -3.192000000
C     0.426000000     7.357000000    -4.292000000
H     0.569000000     7.987000000    -5.166000000
C    -0.578000000     6.393000000    -4.346000000
H    -1.210000000     6.296000000    -5.225000000
C    -0.822000000     5.624000000    -3.216000000
O    -1.985000000     4.975000000    -3.174000000
C    -2.212000000     3.851000000    -3.919000000
C    -3.535000000     3.348000000    -4.011000000
H    -4.346000000     3.989000000    -3.674000000
C    -3.784000000     2.126000000    -4.667000000
O    -5.107000000     1.670000000    -4.827000000
C    -5.633000000     0.452000000    -4.390000000
C    -5.827000000     0.152000000    -3.028000000
H    -5.665000000     0.974000000    -2.336000000
C    -5.894000000    -0.501000000    -5.298000000
H    -5.759000000    -0.252000000    -6.347000000
C    -6.157000000    -1.817000000    -4.944000000
H    -6.398000000    -2.475000000    -5.774000000
C    -6.464000000    -2.083000000    -3.627000000
H    -6.826000000    -3.059000000    -3.314000000
C    -6.163000000    -1.148000000    -2.656000000
O    -6.400000000    -1.536000000    -1.335000000
C    -5.407000000    -1.959000000    -0.532000000
C    -5.466000000    -1.666000000     0.804000000
H    -6.277000000    -1.100000000     1.255000000
C    -4.656000000    -2.302000000     1.709000000
O    -4.928000000    -1.986000000     2.996000000
C    -4.313000000    -2.587000000     4.107000000
C    -3.330000000    -1.958000000     4.881000000
H    -3.049000000    -0.920000000     4.718000000
C    -4.686000000    -3.957000000     4.335000000
H    -5.365000000    -4.466000000     3.656000000
C    -4.182000000    -4.598000000     5.445000000
H    -4.498000000    -5.596000000     5.737000000
C    -3.351000000    -3.864000000     6.322000000
H    -2.863000000    -4.387000000     7.141000000
C    -2.873000000    -2.575000000     6.021000000
O    -1.874000000    -2.065000000     6.842000000
C    -0.720000000    -1.423000000     6.396000000
C    -0.275000000    -0.192000000     6.890000000
H    -0.920000000     0.358000000     7.571000000
C     0.834000000     0.444000000     6.364000000
O     1.259000000     1.623000000     6.948000000
C     1.948000000     2.608000000     6.318000000
C     3.053000000     3.187000000     6.942000000
H     3.377000000     2.995000000     7.962000000
C     3.658000000     4.289000000     6.305000000
H     4.531000000     4.725000000     6.783000000
C     3.108000000     4.790000000     5.130000000
H     3.508000000     5.729000000     4.754000000
C     1.938000000     4.269000000     4.568000000
C     1.371000000     3.162000000     5.198000000
H     0.438000000     2.844000000     4.739000000
C    -1.096000000     1.074000000     1.991000000
H    -1.826000000     1.125000000     2.795000000
C    -0.371000000    -0.116000000     1.714000000
H    -0.437000000    -1.008000000     2.332000000
C     0.236000000    -0.227000000     0.415000000
H     0.587000000    -1.189000000     0.041000000
C     0.305000000     0.834000000    -0.445000000
H     0.740000000     0.715000000    -1.434000000
C    -0.291000000     2.049000000    -0.088000000
H    -0.343000000     2.816000000    -0.856000000
C    -0.964000000     2.191000000     1.146000000
C    -1.644000000     3.489000000     1.510000000
O    -1.845000000     4.434000000     0.805000000
O    -2.107000000     3.623000000     2.598000000
O    -4.969000000     8.179000000     0.982000000
H    -4.698000000     8.538000000     0.137000000
H    -4.186000000     7.742000000     1.318000000
O    -5.348000000     4.131000000     6.178000000
H    -5.753000000     3.506000000     5.577000000
H    -5.352000000     3.686000000     7.025000000
O    -5.972000000     6.802000000    -1.707000000
H    -6.330000000     6.128000000    -1.129000000
H    -5.140000000     7.048000000    -1.302000000
O    -2.326000000     5.686000000     4.386000000
H    -3.210000000     6.048000000     4.321000000
H    -2.200000000     5.213000000     3.564000000
O    -2.307000000     4.482000000     6.696000000
H    -2.043000000     5.081000000     5.998000000
H    -3.262000000     4.539000000     6.712000000
O    -4.170000000     3.162000000    -0.686000000
H    -4.546000000     3.936000000    -1.105000000
H    -3.413000000     3.495000000    -0.205000000
O    -2.443000000     2.271000000     5.165000000
H    -1.978000000     2.964000000     5.635000000
H    -2.291000000     2.465000000     4.240000000
O    -5.960000000     2.100000000     4.453000000
H    -5.538000000     2.343000000     3.630000000
H    -6.556000000     1.389000000     4.216000000
O    -1.856000000     6.935000000     1.567000000
H    -1.224000000     7.098000000     2.267000000
H    -1.697000000     6.028000000     1.306000000
O    -2.748000000     0.648000000    -1.349000000
H    -2.031000000     0.827000000    -0.740000000
H    -3.345000000     1.388000000    -1.240000000
O    -2.330000000     7.907000000     6.726000000
H    -2.454000000     7.263000000     6.028000000
H    -3.195000000     8.296000000     6.851000000
O    -6.173000000     4.869000000     1.121000000
H    -5.614000000     4.310000000     1.661000000
H    -5.569000000     5.295000000     0.512000000
O    -3.676000000     5.858000000    -0.218000000
H    -3.004000000     5.332000000     0.216000000
H    -3.256000000     6.705000000    -0.369000000
O    -0.238000000     7.783000000     3.690000000
H     0.599000000     8.099000000     4.031000000
H    -0.443000000     7.019000000     4.229000000
O    -8.502000000     4.368000000     2.786000000
H    -9.207000000     4.177000000     2.168000000
H    -7.737000000     4.531000000     2.235000000
O    -4.783000000     7.348000000     4.789000000
H    -5.612000000     7.010000000     4.450000000
H    -4.730000000     8.240000000     4.445000000
O    -4.476000000     0.973000000     6.469000000
H    -3.761000000     1.531000000     6.164000000
H    -5.244000000     1.284000000     5.990000000
O    -0.042000000     9.072000000     0.144000000
H    -0.585000000     8.819000000     0.890000000
H    -0.049000000     8.305000000    -0.429000000
O    -4.471000000     2.444000000     1.854000000
H    -3.617000000     2.800000000     2.097000000
H    -4.609000000     2.746000000     0.956000000
