215
-1460.63546
C    -4.005000000    -2.527000000    -2.190000000
H    -3.150000000    -3.193000000    -2.111000000
C    -3.829000000    -1.179000000    -2.627000000
C    -4.859000000    -0.234000000    -2.478000000
H    -4.790000000     0.762000000    -2.906000000
C    -2.527000000    -0.746000000    -3.260000000
O    -1.973000000    -1.838000000    -4.062000000
H    -1.745000000    -0.468000000    -2.538000000
O    -2.712000000     0.366000000    -4.143000000
C    -1.878000000     1.440000000    -4.030000000
C    -2.287000000     2.439000000    -3.208000000
H    -3.220000000     2.372000000    -2.653000000
C    -1.351000000     3.370000000    -2.782000000
O    -1.730000000     4.180000000    -1.676000000
C    -0.082000000     3.471000000    -3.367000000
C     1.050000000     4.483000000    -3.042000000
H     1.628000000     4.656000000    -3.952000000
C     1.870000000     3.981000000    -1.889000000
C     3.155000000     3.462000000    -2.141000000
H     3.602000000     3.495000000    -3.132000000
H     0.633000000     5.474000000    -2.850000000
C     0.224000000     2.491000000    -4.379000000
H     1.207000000     2.549000000    -4.838000000
C    -0.628000000     1.419000000    -4.627000000
C    -0.302000000     0.187000000    -5.515000000
H     0.433000000     0.602000000    -6.207000000
H    -1.141000000    -0.122000000    -6.142000000
C     0.180000000    -0.972000000    -4.754000000
C     1.566000000    -1.095000000    -4.658000000
H     2.207000000    -0.334000000    -5.096000000
C    -0.587000000    -1.899000000    -4.095000000
C    -0.072000000    -2.954000000    -3.444000000
H    -0.803000000    -3.613000000    -2.982000000
C     1.306000000    -3.078000000    -3.332000000
O     1.696000000    -4.045000000    -2.452000000
C     1.930000000    -3.608000000    -1.137000000
C     1.411000000    -4.587000000    -0.051000000
C     1.849000000    -4.513000000     1.270000000
H     2.545000000    -3.693000000     1.432000000
C     0.293000000    -5.422000000    -0.391000000
H    -0.049000000    -5.507000000    -1.419000000
O     3.364000000    -3.533000000    -1.047000000
H     1.598000000    -2.590000000    -0.885000000
C     2.144000000    -2.164000000    -3.908000000
C     3.612000000    -2.223000000    -3.756000000
H     4.097000000    -1.807000000    -4.641000000
H     3.937000000    -3.264000000    -3.717000000
C     3.967000000    -1.550000000    -2.478000000
C     4.420000000    -0.177000000    -2.463000000
H     4.415000000     0.459000000    -3.345000000
C     3.898000000    -2.243000000    -1.249000000
C     4.260000000    -1.579000000    -0.077000000
H     4.145000000    -2.021000000     0.910000000
C     4.767000000    -0.301000000    -0.103000000
O     4.993000000     0.469000000     1.110000000
C     3.826000000     1.167000000     1.621000000
C     3.707000000     1.025000000     3.189000000
C     4.074000000    -0.144000000     3.851000000
H     4.531000000    -0.937000000     3.264000000
C     3.225000000     2.067000000     3.953000000
H     3.128000000     3.048000000     3.495000000
O     3.964000000     2.510000000     1.221000000
H     2.894000000     0.877000000     1.112000000
C     4.799000000     0.441000000    -1.294000000
C     5.083000000     1.918000000    -1.266000000
H     5.594000000     2.215000000    -2.184000000
H     5.829000000     2.123000000    -0.494000000
C     3.798000000     2.763000000    -1.095000000
C     3.295000000     2.890000000     0.154000000
C     2.099000000     3.487000000     0.446000000
H     1.618000000     3.534000000     1.420000000
C     1.336000000     3.971000000    -0.592000000
O     0.170000000     4.627000000    -0.285000000
C    -1.106000000     3.962000000    -0.378000000
H    -0.917000000     2.880000000    -0.324000000
C    -2.019000000     4.178000000     0.828000000
C    -3.409000000     3.920000000     0.684000000
H    -3.741000000     3.735000000    -0.335000000
C    -1.426000000     4.555000000     2.072000000
H    -0.347000000     4.679000000     2.099000000
C    -2.276000000     4.466000000     3.236000000
O    -1.745000000     4.680000000     4.486000000
C    -3.596000000     4.115000000     3.080000000
H    -4.172000000     4.003000000     3.995000000
C    -4.169000000     3.848000000     1.825000000
O    -5.460000000     3.477000000     1.703000000
C    -6.131000000     3.281000000     0.516000000
C    -6.371000000     1.986000000     0.085000000
H    -6.177000000     1.098000000     0.681000000
C    -6.566000000     4.368000000    -0.289000000
H    -6.408000000     5.376000000     0.085000000
C    -7.185000000     4.115000000    -1.529000000
H    -7.414000000     4.979000000    -2.149000000
C    -7.379000000     2.748000000    -1.912000000
H    -7.782000000     2.457000000    -2.879000000
C    -6.915000000     1.685000000    -1.168000000
O    -7.022000000     0.334000000    -1.596000000
C    -6.042000000    -0.624000000    -1.833000000
C    -6.225000000    -1.955000000    -1.429000000
H    -7.182000000    -2.281000000    -1.029000000
C    -5.218000000    -2.884000000    -1.573000000
O    -5.375000000    -4.190000000    -1.234000000
C    -4.444000000    -5.250000000    -1.384000000
C    -3.509000000    -5.471000000    -0.329000000
H    -3.653000000    -4.959000000     0.619000000
C    -4.408000000    -5.963000000    -2.539000000
H    -5.076000000    -5.744000000    -3.368000000
C    -3.539000000    -7.028000000    -2.620000000
H    -3.599000000    -7.598000000    -3.543000000
C    -2.568000000    -7.298000000    -1.592000000
H    -1.976000000    -8.190000000    -1.783000000
C    -2.511000000    -6.449000000    -0.486000000
O    -1.588000000    -6.696000000     0.530000000
C    -0.408000000    -5.978000000     0.713000000
C     0.030000000    -5.796000000     2.036000000
H    -0.451000000    -6.327000000     2.853000000
C     1.224000000    -5.079000000     2.325000000
O     1.627000000    -4.881000000     3.612000000
C     2.866000000    -4.473000000     4.097000000
C     2.882000000    -3.154000000     4.590000000
H     2.010000000    -2.520000000     4.453000000
C     3.986000000    -5.313000000     4.087000000
H     3.903000000    -6.357000000     3.796000000
C     5.211000000    -4.772000000     4.596000000
H     6.103000000    -5.374000000     4.443000000
C     5.204000000    -3.470000000     5.126000000
H     6.112000000    -3.042000000     5.545000000
C     4.082000000    -2.680000000     5.141000000
O     4.181000000    -1.486000000     5.793000000
C     3.847000000    -0.326000000     5.202000000
C     3.322000000     0.735000000     5.929000000
H     3.110000000     0.595000000     6.986000000
C     3.016000000     1.912000000     5.280000000
O     2.321000000     2.828000000     6.065000000
C     1.633000000     3.925000000     5.687000000
C     2.328000000     5.096000000     5.419000000
H     3.383000000     5.063000000     5.676000000
C     1.629000000     6.195000000     4.974000000
H     2.072000000     7.153000000     4.714000000
C     0.260000000     6.089000000     4.728000000
H    -0.202000000     6.953000000     4.256000000
C    -0.402000000     4.858000000     4.819000000
C     0.267000000     3.793000000     5.392000000
H    -0.193000000     2.808000000     5.392000000
C     0.026000000    -0.548000000     2.399000000
H     0.589000000    -0.874000000     3.269000000
C     0.501000000    -0.631000000     1.118000000
H     1.463000000    -1.102000000     0.936000000
C    -0.196000000    -0.031000000     0.049000000
H     0.320000000     0.139000000    -0.894000000
C    -1.397000000     0.591000000     0.277000000
H    -1.985000000     1.042000000    -0.518000000
C    -1.985000000     0.495000000     1.514000000
H    -2.995000000     0.894000000     1.564000000
C    -1.282000000     0.033000000     2.626000000
C    -1.927000000     0.108000000     4.005000000
O    -3.107000000     0.338000000     4.124000000
O    -1.246000000    -0.087000000     5.041000000
O    -0.752000000     0.966000000     7.336000000
H    -0.112000000     0.331000000     7.657000000
H    -1.006000000     0.635000000     6.474000000
O    -3.256000000     5.422000000     7.121000000
H    -2.886000000     4.653000000     6.686000000
H    -2.609000000     5.654000000     7.787000000
O    -8.060000000     1.519000000     4.764000000
H    -8.061000000     1.122000000     5.636000000
H    -7.475000000     0.963000000     4.249000000
O    -3.161000000     2.343000000     6.357000000
H    -2.327000000     1.947000000     6.612000000
H    -3.456000000     1.819000000     5.612000000
O    -5.746000000    -2.706000000     6.787000000
H    -6.526000000    -2.403000000     7.251000000
H    -5.112000000    -1.996000000     6.894000000
O    -2.359000000    -3.469000000     4.429000000
H    -3.055000000    -4.122000000     4.504000000
H    -2.821000000    -2.633000000     4.367000000
O    -6.193000000    -3.841000000     2.758000000
H    -5.428000000    -3.807000000     3.332000000
H    -6.282000000    -2.948000000     2.425000000
O    -5.549000000     1.217000000     3.392000000
H    -5.608000000     2.166000000     3.278000000
H    -4.617000000     1.051000000     3.535000000
O    -5.397000000     3.396000000     7.734000000
H    -4.815000000     2.775000000     7.296000000
H    -5.841000000     3.853000000     7.020000000
O    -0.161000000    -2.512000000     5.767000000
H    -0.395000000    -1.588000000     5.856000000
H    -0.632000000    -2.805000000     4.987000000
O    -4.766000000    -1.737000000     4.163000000
H    -4.247000000    -0.934000000     4.206000000
H    -5.661000000    -1.437000000     4.010000000
O     0.068000000     3.126000000     9.035000000
H     0.905000000     2.820000000     9.385000000
H    -0.102000000     2.553000000     8.288000000
O    -2.086000000    -1.026000000     9.684000000
H    -1.353000000    -0.513000000    10.025000000
H    -1.694000000    -1.592000000     9.020000000
O    -1.807000000    -3.072000000     7.923000000
H    -2.537000000    -2.672000000     7.451000000
H    -1.084000000    -3.068000000     7.296000000
O    -4.090000000    -0.401000000     6.578000000
H    -3.659000000     0.239000000     7.145000000
H    -3.718000000    -0.242000000     5.711000000
O    -6.951000000    -1.204000000     2.075000000
H    -6.744000000    -0.534000000     2.726000000
H    -7.318000000    -0.717000000     1.338000000
O    -4.370000000     0.540000000    10.049000000
H    -5.051000000    -0.079000000    10.312000000
H    -3.655000000    -0.011000000     9.732000000
O    -4.689000000    -4.703000000     5.269000000
H    -4.860000000    -3.839000000     5.643000000
H    -5.183000000    -5.307000000     5.825000000
O    -0.610000000    -5.241000000     5.821000000
H     0.014000000    -4.601000000     6.164000000
H    -1.179000000    -4.735000000     5.242000000
