215
-1471.00400
C    -3.993000000    -2.037000000    -2.468000000
H    -3.222000000    -2.724000000    -2.805000000
C    -3.787000000    -0.659000000    -2.661000000
C    -4.751000000     0.231000000    -2.136000000
H    -4.692000000     1.290000000    -2.373000000
C    -2.445000000    -0.213000000    -3.322000000
O    -2.030000000    -1.086000000    -4.408000000
H    -1.601000000    -0.236000000    -2.617000000
O    -2.471000000     1.125000000    -3.889000000
C    -1.420000000     1.964000000    -3.619000000
C    -1.647000000     3.012000000    -2.762000000
H    -2.654000000     2.982000000    -2.352000000
C    -0.559000000     3.902000000    -2.464000000
O    -0.926000000     4.710000000    -1.373000000
C     0.643000000     3.858000000    -3.125000000
C     1.869000000     4.707000000    -2.702000000
H     2.507000000     4.743000000    -3.587000000
C     2.581000000     4.013000000    -1.507000000
C     3.692000000     3.146000000    -1.749000000
H     4.041000000     2.947000000    -2.759000000
H     1.541000000     5.736000000    -2.540000000
C     0.785000000     2.817000000    -4.133000000
H     1.724000000     2.616000000    -4.641000000
C    -0.271000000     1.969000000    -4.423000000
C    -0.178000000     0.890000000    -5.509000000
H     0.477000000     1.140000000    -6.346000000
H    -1.136000000     0.651000000    -5.975000000
C     0.244000000    -0.461000000    -4.924000000
C     1.605000000    -0.793000000    -4.833000000
H     2.382000000    -0.216000000    -5.326000000
C    -0.691000000    -1.349000000    -4.406000000
C    -0.323000000    -2.577000000    -3.806000000
H    -0.978000000    -3.157000000    -3.160000000
C     1.043000000    -2.832000000    -3.651000000
O     1.391000000    -3.963000000    -2.965000000
C     1.672000000    -3.808000000    -1.576000000
C     0.994000000    -4.894000000    -0.786000000
C     1.664000000    -5.257000000     0.406000000
H     2.591000000    -4.791000000     0.730000000
C    -0.223000000    -5.497000000    -1.142000000
H    -0.757000000    -5.190000000    -2.038000000
O     3.150000000    -3.699000000    -1.465000000
H     1.150000000    -2.902000000    -1.237000000
C     1.973000000    -1.909000000    -4.080000000
C     3.426000000    -2.060000000    -3.848000000
H     4.001000000    -1.544000000    -4.620000000
H     3.676000000    -3.117000000    -3.962000000
C     3.904000000    -1.595000000    -2.474000000
C     4.393000000    -0.265000000    -2.273000000
H     4.451000000     0.414000000    -3.121000000
C     3.847000000    -2.494000000    -1.381000000
C     4.132000000    -2.010000000    -0.092000000
H     3.843000000    -2.573000000     0.792000000
C     4.604000000    -0.712000000     0.126000000
O     4.695000000    -0.271000000     1.446000000
C     3.700000000     0.725000000     1.840000000
C     3.053000000     0.489000000     3.174000000
C     2.517000000    -0.785000000     3.434000000
H     2.731000000    -1.651000000     2.813000000
C     2.754000000     1.523000000     4.075000000
H     3.034000000     2.528000000     3.773000000
O     4.323000000     2.101000000     1.673000000
H     2.884000000     0.717000000     1.102000000
C     4.777000000     0.192000000    -1.006000000
C     5.380000000     1.588000000    -0.874000000
H     5.805000000     1.883000000    -1.836000000
H     6.187000000     1.587000000    -0.139000000
C     4.349000000     2.606000000    -0.635000000
C     3.848000000     2.809000000     0.623000000
C     2.810000000     3.728000000     0.870000000
H     2.499000000     3.848000000     1.905000000
C     2.126000000     4.278000000    -0.225000000
O     1.043000000     5.124000000    -0.055000000
C    -0.245000000     4.433000000    -0.151000000
H    -0.001000000     3.361000000    -0.174000000
C    -1.171000000     4.625000000     1.006000000
C    -2.405000000     3.967000000     1.091000000
H    -2.755000000     3.334000000     0.279000000
C    -0.769000000     5.467000000     2.089000000
H     0.187000000     5.981000000     2.014000000
C    -1.513000000     5.425000000     3.291000000
O    -0.991000000     6.004000000     4.412000000
C    -2.661000000     4.674000000     3.362000000
H    -3.118000000     4.649000000     4.348000000
C    -3.143000000     4.024000000     2.260000000
O    -4.341000000     3.320000000     2.297000000
C    -5.170000000     3.200000000     1.205000000
C    -5.515000000     1.947000000     0.725000000
H    -5.341000000     1.125000000     1.415000000
C    -5.706000000     4.332000000     0.609000000
H    -5.454000000     5.299000000     1.037000000
C    -6.595000000     4.196000000    -0.502000000
H    -7.151000000     4.988000000    -0.995000000
C    -6.824000000     2.947000000    -0.977000000
H    -7.542000000     2.903000000    -1.791000000
C    -6.314000000     1.812000000    -0.412000000
O    -6.766000000     0.631000000    -0.740000000
C    -5.883000000    -0.217000000    -1.463000000
C    -5.993000000    -1.547000000    -1.157000000
H    -6.790000000    -1.939000000    -0.531000000
C    -5.047000000    -2.467000000    -1.658000000
O    -5.212000000    -3.759000000    -1.171000000
C    -4.553000000    -4.912000000    -1.602000000
C    -3.446000000    -5.488000000    -0.940000000
H    -3.120000000    -5.087000000     0.017000000
C    -5.136000000    -5.527000000    -2.752000000
H    -6.051000000    -5.122000000    -3.175000000
C    -4.500000000    -6.671000000    -3.259000000
H    -5.002000000    -7.272000000    -4.012000000
C    -3.393000000    -7.212000000    -2.551000000
H    -2.938000000    -8.113000000    -2.953000000
C    -2.834000000    -6.656000000    -1.428000000
O    -1.819000000    -7.293000000    -0.786000000
C    -0.696000000    -6.644000000    -0.405000000
C    -0.161000000    -6.840000000     0.853000000
H    -0.611000000    -7.534000000     1.558000000
C     0.968000000    -6.185000000     1.277000000
O     1.538000000    -6.450000000     2.487000000
C     2.206000000    -5.516000000     3.225000000
C     1.494000000    -4.372000000     3.561000000
H     0.452000000    -4.242000000     3.282000000
C     3.445000000    -5.689000000     3.809000000
H     4.068000000    -6.530000000     3.517000000
C     4.087000000    -4.781000000     4.615000000
H     5.018000000    -4.978000000     5.139000000
C     3.359000000    -3.630000000     4.874000000
H     3.622000000    -2.935000000     5.668000000
C     2.069000000    -3.372000000     4.373000000
O     1.231000000    -2.363000000     4.772000000
C     1.637000000    -1.041000000     4.502000000
C     1.400000000    -0.003000000     5.417000000
H     0.890000000    -0.192000000     6.358000000
C     1.956000000     1.265000000     5.206000000
O     1.699000000     2.261000000     6.056000000
C     1.522000000     3.603000000     5.700000000
C     2.551000000     4.467000000     5.936000000
H     3.443000000     4.117000000     6.449000000
C     2.481000000     5.800000000     5.636000000
H     3.254000000     6.532000000     5.855000000
C     1.261000000     6.273000000     5.148000000
H     1.289000000     7.327000000     4.887000000
C     0.152000000     5.434000000     5.004000000
C     0.254000000     4.082000000     5.254000000
H    -0.607000000     3.444000000     5.075000000
C     0.022000000    -1.633000000     1.043000000
H     0.525000000    -2.446000000     1.560000000
C     0.713000000    -0.737000000     0.283000000
H     1.787000000    -0.875000000     0.188000000
C     0.127000000     0.424000000    -0.291000000
H     0.722000000     0.982000000    -0.949000000
C    -1.208000000     0.632000000    -0.071000000
H    -1.761000000     1.304000000    -0.722000000
C    -1.925000000    -0.394000000     0.590000000
H    -3.009000000    -0.325000000     0.537000000
C    -1.366000000    -1.465000000     1.239000000
C    -2.289000000    -2.437000000     1.903000000
O    -3.496000000    -2.326000000     1.869000000
O    -1.791000000    -3.130000000     2.774000000
O    -2.928000000    -8.254000000     3.293000000
H    -3.777000000    -8.528000000     2.944000000
H    -2.924000000    -7.302000000     3.192000000
O    -5.795000000    -4.226000000     8.120000000
H    -5.442000000    -3.987000000     7.262000000
H    -5.440000000    -5.099000000     8.290000000
O    -1.357000000    -1.668000000     5.267000000
H    -1.486000000    -2.617000000     5.255000000
H    -0.427000000    -1.550000000     5.074000000
O    -3.215000000     1.036000000     3.772000000
H    -2.452000000     1.249000000     3.235000000
H    -3.431000000     0.134000000     3.533000000
O    -6.153000000     2.327000000     4.298000000
H    -6.943000000     2.433000000     3.769000000
H    -5.432000000     2.429000000     3.676000000
O    -3.008000000    -5.568000000     2.725000000
H    -3.810000000    -5.374000000     2.240000000
H    -2.505000000    -4.755000000     2.691000000
O    -7.125000000    -0.551000000     4.373000000
H    -6.481000000     0.068000000     4.716000000
H    -7.968000000    -0.115000000     4.500000000
O    -5.815000000    -1.140000000     2.058000000
H    -5.921000000    -1.106000000     3.008000000
H    -4.996000000    -1.619000000     1.926000000
O    -2.656000000     2.190000000     6.562000000
H    -2.927000000     1.813000000     5.725000000
H    -2.527000000     1.433000000     7.134000000
O     0.507000000    -5.256000000     6.684000000
H     1.066000000    -4.479000000     6.677000000
H    -0.114000000    -5.110000000     5.970000000
O    -1.601000000    -4.457000000     5.143000000
H    -2.465000000    -4.680000000     5.491000000
H    -1.780000000    -4.088000000     4.278000000
O    -5.915000000    -3.574000000     4.969000000
H    -6.806000000    -3.305000000     4.744000000
H    -5.371000000    -2.825000000     4.726000000
O    -5.267000000    -4.200000000     1.560000000
H    -4.678000000    -3.466000000     1.735000000
H    -5.463000000    -4.132000000     0.626000000
O    -1.611000000    -0.171000000     7.561000000
H    -1.353000000    -0.809000000     8.227000000
H    -1.648000000    -0.675000000     6.749000000
O    -4.059000000    -4.929000000     6.001000000
H    -4.356000000    -5.793000000     5.716000000
H    -4.498000000    -4.318000000     5.408000000
O    -3.947000000    -1.762000000     4.340000000
H    -3.573000000    -2.208000000     3.581000000
H    -3.201000000    -1.606000000     4.919000000
O    -8.374000000    -1.070000000     1.524000000
H    -8.237000000    -0.497000000     0.771000000
H    -7.535000000    -1.066000000     1.985000000
O    -8.142000000    -3.946000000     2.971000000
H    -7.236000000    -4.210000000     2.817000000
H    -8.304000000    -3.257000000     2.326000000
O    -5.948000000    -7.006000000     4.906000000
H    -6.689000000    -7.535000000     4.611000000
H    -6.235000000    -6.101000000     4.780000000
