215
-1457.18691
C    -3.688000000    -2.590000000    -1.861000000
H    -2.911000000    -3.323000000    -2.061000000
C    -3.727000000    -1.259000000    -2.376000000
C    -4.801000000    -0.418000000    -2.110000000
H    -4.873000000     0.573000000    -2.551000000
C    -2.505000000    -0.773000000    -3.204000000
O    -1.881000000    -1.842000000    -4.023000000
H    -1.780000000    -0.432000000    -2.450000000
O    -2.772000000     0.396000000    -4.014000000
C    -1.964000000     1.493000000    -3.925000000
C    -2.304000000     2.512000000    -3.038000000
H    -3.316000000     2.517000000    -2.642000000
C    -1.307000000     3.481000000    -2.804000000
O    -1.554000000     4.490000000    -1.827000000
C    -0.044000000     3.430000000    -3.437000000
C     1.020000000     4.396000000    -3.187000000
H     1.569000000     4.606000000    -4.108000000
C     1.887000000     4.151000000    -2.017000000
C     3.145000000     3.550000000    -2.188000000
H     3.503000000     3.338000000    -3.192000000
H     0.584000000     5.387000000    -3.042000000
C     0.188000000     2.445000000    -4.397000000
H     1.128000000     2.440000000    -4.942000000
C    -0.777000000     1.432000000    -4.609000000
C    -0.405000000     0.245000000    -5.472000000
H     0.262000000     0.688000000    -6.214000000
H    -1.245000000    -0.137000000    -6.056000000
C     0.259000000    -0.873000000    -4.715000000
C     1.629000000    -0.859000000    -4.555000000
H     2.126000000     0.046000000    -4.895000000
C    -0.518000000    -1.940000000    -4.191000000
C     0.038000000    -3.035000000    -3.714000000
H    -0.487000000    -3.931000000    -3.394000000
C     1.475000000    -2.969000000    -3.455000000
O     1.936000000    -4.010000000    -2.678000000
C     2.262000000    -3.745000000    -1.301000000
C     1.733000000    -4.831000000    -0.401000000
C     2.154000000    -4.935000000     0.966000000
H     3.008000000    -4.327000000     1.255000000
C     0.619000000    -5.587000000    -0.837000000
H     0.257000000    -5.479000000    -1.857000000
O     3.636000000    -3.356000000    -1.036000000
H     1.620000000    -2.863000000    -1.162000000
C     2.236000000    -1.910000000    -3.916000000
C     3.758000000    -1.960000000    -3.727000000
H     4.206000000    -1.345000000    -4.511000000
H     4.127000000    -2.982000000    -3.832000000
C     4.135000000    -1.394000000    -2.361000000
C     4.466000000    -0.022000000    -2.349000000
H     4.540000000     0.496000000    -3.301000000
C     4.004000000    -2.062000000    -1.151000000
C     4.213000000    -1.310000000     0.080000000
H     4.096000000    -1.713000000     1.083000000
C     4.617000000     0.006000000     0.023000000
O     4.666000000     0.618000000     1.218000000
C     3.478000000     1.330000000     1.658000000
C     3.320000000     1.150000000     3.199000000
C     3.352000000    -0.159000000     3.740000000
H     3.656000000    -1.018000000     3.148000000
C     2.790000000     2.186000000     4.074000000
H     2.733000000     3.218000000     3.736000000
O     3.769000000     2.750000000     1.361000000
H     2.604000000     0.983000000     1.088000000
C     4.696000000     0.694000000    -1.193000000
C     5.081000000     2.177000000    -1.196000000
H     5.725000000     2.355000000    -2.060000000
H     5.627000000     2.413000000    -0.281000000
C     3.811000000     3.029000000    -1.092000000
C     3.298000000     3.251000000     0.192000000
C     2.071000000     3.857000000     0.348000000
H     1.719000000     4.093000000     1.349000000
C     1.382000000     4.367000000    -0.750000000
O     0.204000000     4.993000000    -0.435000000
C    -0.964000000     4.230000000    -0.471000000
H    -0.707000000     3.163000000    -0.400000000
C    -1.903000000     4.492000000     0.726000000
C    -3.204000000     4.057000000     0.637000000
H    -3.460000000     3.588000000    -0.310000000
C    -1.339000000     4.793000000     1.960000000
H    -0.266000000     4.872000000     2.117000000
C    -2.196000000     4.906000000     3.063000000
O    -1.648000000     5.277000000     4.292000000
C    -3.585000000     4.561000000     2.963000000
H    -4.119000000     4.457000000     3.905000000
C    -4.075000000     4.114000000     1.710000000
O    -5.393000000     3.758000000     1.586000000
C    -5.997000000     3.253000000     0.396000000
C    -6.207000000     1.919000000     0.177000000
H    -5.823000000     1.191000000     0.887000000
C    -6.290000000     4.141000000    -0.638000000
H    -6.075000000     5.198000000    -0.509000000
C    -7.001000000     3.655000000    -1.742000000
H    -7.302000000     4.416000000    -2.457000000
C    -7.325000000     2.344000000    -1.923000000
H    -7.951000000     2.103000000    -2.778000000
C    -6.766000000     1.436000000    -1.015000000
O    -6.890000000     0.068000000    -1.094000000
C    -5.779000000    -0.826000000    -1.243000000
C    -5.705000000    -2.071000000    -0.622000000
H    -6.553000000    -2.461000000    -0.066000000
C    -4.630000000    -2.917000000    -0.915000000
O    -4.611000000    -4.151000000    -0.338000000
C    -4.052000000    -5.289000000    -0.892000000
C    -2.780000000    -5.711000000    -0.385000000
H    -2.397000000    -5.075000000     0.409000000
C    -4.579000000    -6.036000000    -1.979000000
H    -5.568000000    -5.769000000    -2.343000000
C    -3.951000000    -7.238000000    -2.417000000
H    -4.395000000    -7.843000000    -3.203000000
C    -2.763000000    -7.631000000    -1.873000000
H    -2.233000000    -8.525000000    -2.193000000
C    -2.183000000    -6.937000000    -0.834000000
O    -0.985000000    -7.333000000    -0.331000000
C     0.068000000    -6.545000000     0.058000000
C     0.579000000    -6.745000000     1.367000000
H     0.142000000    -7.455000000     2.064000000
C     1.733000000    -5.999000000     1.788000000
O     2.263000000    -6.099000000     3.035000000
C     2.963000000    -5.140000000     3.816000000
C     2.337000000    -3.947000000     4.146000000
H     1.291000000    -3.734000000     3.941000000
C     4.310000000    -5.350000000     4.108000000
H     4.753000000    -6.167000000     3.544000000
C     5.015000000    -4.395000000     4.884000000
H     6.085000000    -4.491000000     5.047000000
C     4.359000000    -3.230000000     5.330000000
H     4.769000000    -2.549000000     6.072000000
C     3.054000000    -2.912000000     4.796000000
O     2.569000000    -1.718000000     5.328000000
C     2.812000000    -0.436000000     4.961000000
C     2.332000000     0.605000000     5.754000000
H     1.846000000     0.352000000     6.693000000
C     2.366000000     1.930000000     5.370000000
O     1.892000000     2.910000000     6.294000000
C     1.407000000     4.107000000     5.834000000
C     2.178000000     5.294000000     5.909000000
H     3.212000000     5.286000000     6.244000000
C     1.618000000     6.451000000     5.429000000
H     2.238000000     7.342000000     5.491000000
C     0.395000000     6.452000000     4.803000000
H    -0.081000000     7.401000000     4.571000000
C    -0.324000000     5.266000000     4.668000000
C     0.217000000     4.051000000     5.193000000
H    -0.316000000     3.107000000     5.112000000
C    -0.361000000    -1.756000000     1.264000000
H     0.265000000    -2.548000000     1.667000000
C     0.304000000    -0.820000000     0.499000000
H     1.387000000    -0.905000000     0.486000000
C    -0.448000000     0.272000000    -0.027000000
H     0.215000000     1.010000000    -0.453000000
C    -1.804000000     0.360000000     0.162000000
H    -2.356000000     1.197000000    -0.257000000
C    -2.411000000    -0.603000000     0.970000000
H    -3.498000000    -0.592000000     0.998000000
C    -1.739000000    -1.710000000     1.470000000
C    -2.397000000    -2.740000000     2.307000000
O    -3.624000000    -2.559000000     2.565000000
O    -1.775000000    -3.528000000     2.964000000
O    -3.687000000    -7.335000000     2.280000000
H    -4.340000000    -7.037000000     1.646000000
H    -3.529000000    -6.574000000     2.837000000
O    -1.165000000    -2.447000000     5.343000000
H    -1.186000000    -2.907000000     4.504000000
H    -0.950000000    -3.126000000     5.983000000
O    -2.491000000    -5.777000000     6.890000000
H    -1.909000000    -6.431000000     7.277000000
H    -3.349000000    -6.202000000     6.871000000
O    -1.699000000     0.082000000     4.205000000
H    -1.671000000    -0.704000000     4.750000000
H    -1.843000000    -0.248000000     3.318000000
O    -4.385000000     1.064000000     4.305000000
H    -3.498000000     1.104000000     3.950000000
H    -4.325000000     0.445000000     5.033000000
O    -3.520000000    -5.100000000     3.873000000
H    -3.531000000    -4.787000000     4.778000000
H    -2.800000000    -4.623000000     3.463000000
O    -5.646000000    -0.639000000     2.437000000
H    -5.351000000     0.011000000     3.075000000
H    -4.908000000    -1.243000000     2.352000000
O    -1.317000000     1.254000000     6.732000000
H    -1.129000000     1.149000000     5.799000000
H    -1.371000000     0.360000000     7.068000000
O    -6.090000000    -6.536000000     1.426000000
H    -6.889000000    -6.357000000     0.930000000
H    -5.886000000    -5.706000000     1.858000000
O     1.037000000    -6.170000000     6.303000000
H     1.165000000    -5.299000000     6.679000000
H     0.429000000    -6.029000000     5.577000000
O    -0.798000000    -6.181000000     4.165000000
H    -1.705000000    -6.110000000     4.463000000
H    -0.749000000    -5.598000000     3.407000000
O    -6.706000000    -0.752000000     6.574000000
H    -7.483000000    -0.374000000     6.162000000
H    -6.120000000    -0.949000000     5.843000000
O    -6.081000000    -4.205000000     2.769000000
H    -5.383000000    -3.673000000     2.386000000
H    -5.945000000    -4.135000000     3.714000000
O     0.833000000    -3.530000000     6.867000000
H     0.871000000    -3.125000000     6.001000000
H     1.265000000    -2.901000000     7.445000000
O    -3.464000000    -3.187000000     7.134000000
H    -2.637000000    -2.744000000     6.945000000
H    -3.280000000    -4.114000000     6.985000000
O    -4.721000000    -1.702000000     5.030000000
H    -4.487000000    -2.101000000     4.192000000
H    -4.566000000    -2.392000000     5.675000000
O    -8.178000000    -1.105000000     1.720000000
H    -8.639000000    -0.273000000     1.615000000
H    -7.306000000    -0.858000000     2.028000000
O    -8.676000000    -3.647000000     2.220000000
H    -7.824000000    -3.910000000     2.568000000
H    -8.557000000    -2.732000000     1.964000000
O    -6.065000000    -4.350000000     5.628000000
H    -6.363000000    -5.218000000     5.357000000
H    -6.631000000    -4.122000000     6.365000000
