215
-1462.96232
C    -4.085000000    -2.554000000    -1.798000000
H    -3.619000000    -3.243000000    -2.498000000
C    -3.827000000    -1.140000000    -1.956000000
C    -4.438000000    -0.275000000    -0.996000000
H    -4.255000000     0.791000000    -1.103000000
C    -2.787000000    -0.552000000    -2.855000000
O    -2.442000000    -1.558000000    -3.860000000
H    -1.847000000    -0.420000000    -2.300000000
O    -3.250000000     0.642000000    -3.497000000
C    -2.332000000     1.618000000    -3.429000000
C    -2.527000000     2.655000000    -2.510000000
H    -3.422000000     2.652000000    -1.893000000
C    -1.497000000     3.599000000    -2.355000000
O    -1.662000000     4.484000000    -1.332000000
C    -0.300000000     3.621000000    -3.076000000
C     0.800000000     4.637000000    -2.964000000
H     1.154000000     4.893000000    -3.964000000
C     1.761000000     4.199000000    -1.895000000
C     2.941000000     3.582000000    -2.314000000
H     3.218000000     3.516000000    -3.363000000
H     0.366000000     5.570000000    -2.599000000
C    -0.228000000     2.623000000    -4.090000000
H     0.606000000     2.710000000    -4.782000000
C    -1.193000000     1.651000000    -4.256000000
C    -0.996000000     0.588000000    -5.348000000
H    -0.315000000     1.087000000    -6.040000000
H    -1.960000000     0.476000000    -5.849000000
C    -0.453000000    -0.660000000    -4.832000000
C     0.902000000    -0.731000000    -4.972000000
H     1.484000000     0.082000000    -5.399000000
C    -1.140000000    -1.660000000    -4.226000000
C    -0.438000000    -2.814000000    -3.719000000
H    -0.969000000    -3.612000000    -3.206000000
C     0.943000000    -2.842000000    -3.856000000
O     1.582000000    -3.926000000    -3.290000000
C     1.937000000    -3.562000000    -1.947000000
C     1.458000000    -4.567000000    -0.927000000
C     1.917000000    -4.399000000     0.342000000
H     2.628000000    -3.617000000     0.594000000
C     0.453000000    -5.513000000    -1.202000000
H     0.336000000    -5.756000000    -2.255000000
O     3.392000000    -3.397000000    -1.939000000
H     1.485000000    -2.620000000    -1.603000000
C     1.608000000    -1.836000000    -4.501000000
C     3.168000000    -1.740000000    -4.388000000
H     3.598000000    -1.087000000    -5.151000000
H     3.519000000    -2.765000000    -4.527000000
C     3.704000000    -1.256000000    -3.000000000
C     4.047000000     0.096000000    -2.869000000
H     3.764000000     0.759000000    -3.682000000
C     3.837000000    -2.127000000    -1.911000000
C     4.287000000    -1.627000000    -0.632000000
H     4.326000000    -2.215000000     0.281000000
C     4.574000000    -0.272000000    -0.569000000
O     4.832000000     0.235000000     0.647000000
C     3.749000000     1.002000000     1.284000000
C     3.678000000     0.767000000     2.748000000
C     4.066000000    -0.481000000     3.232000000
H     4.375000000    -1.314000000     2.605000000
C     3.093000000     1.765000000     3.556000000
H     2.695000000     2.665000000     3.095000000
O     4.040000000     2.423000000     1.012000000
H     2.719000000     0.742000000     1.002000000
C     4.539000000     0.611000000    -1.702000000
C     4.932000000     2.064000000    -1.750000000
H     5.390000000     2.190000000    -2.733000000
H     5.815000000     2.135000000    -1.111000000
C     3.802000000     2.984000000    -1.374000000
C     3.419000000     3.097000000    -0.009000000
C     2.292000000     3.850000000     0.408000000
H     2.071000000     3.974000000     1.465000000
C     1.452000000     4.411000000    -0.548000000
O     0.317000000     5.043000000    -0.134000000
C    -0.937000000     4.254000000    -0.067000000
H    -0.677000000     3.185000000    -0.064000000
C    -1.751000000     4.511000000     1.165000000
C    -3.130000000     4.418000000     1.209000000
H    -3.656000000     4.098000000     0.313000000
C    -1.079000000     4.886000000     2.376000000
H    -0.005000000     5.051000000     2.411000000
C    -1.802000000     5.169000000     3.574000000
O    -1.137000000     5.699000000     4.673000000
C    -3.150000000     4.942000000     3.586000000
H    -3.702000000     5.254000000     4.469000000
C    -3.859000000     4.601000000     2.426000000
O    -5.251000000     4.373000000     2.448000000
C    -5.885000000     3.533000000     1.545000000
C    -5.613000000     2.195000000     1.530000000
H    -4.981000000     1.652000000     2.227000000
C    -6.715000000     4.177000000     0.632000000
H    -6.917000000     5.227000000     0.832000000
C    -7.347000000     3.419000000    -0.397000000
H    -7.908000000     4.027000000    -1.103000000
C    -7.092000000     2.088000000    -0.448000000
H    -7.446000000     1.469000000    -1.268000000
C    -6.287000000     1.447000000     0.549000000
O    -6.251000000     0.092000000     0.637000000
C    -5.363000000    -0.758000000    -0.095000000
C    -5.510000000    -2.116000000     0.088000000
H    -6.264000000    -2.411000000     0.813000000
C    -4.796000000    -3.029000000    -0.683000000
O    -5.059000000    -4.300000000    -0.514000000
C    -4.387000000    -5.345000000    -1.191000000
C    -3.077000000    -5.626000000    -0.750000000
H    -2.734000000    -5.003000000     0.072000000
C    -5.000000000    -6.322000000    -2.002000000
H    -6.037000000    -6.113000000    -2.253000000
C    -4.297000000    -7.410000000    -2.480000000
H    -4.825000000    -8.259000000    -2.907000000
C    -2.965000000    -7.590000000    -2.114000000
H    -2.401000000    -8.478000000    -2.390000000
C    -2.381000000    -6.756000000    -1.157000000
O    -1.168000000    -7.133000000    -0.561000000
C    -0.187000000    -6.250000000    -0.229000000
C     0.323000000    -6.122000000     1.061000000
H    -0.089000000    -6.672000000     1.904000000
C     1.332000000    -5.226000000     1.306000000
O     1.644000000    -4.987000000     2.628000000
C     2.863000000    -4.692000000     3.084000000
C     3.037000000    -3.482000000     3.658000000
H     2.198000000    -2.792000000     3.637000000
C     3.815000000    -5.661000000     3.151000000
H     3.590000000    -6.650000000     2.760000000
C     5.027000000    -5.420000000     3.879000000
H     5.780000000    -6.198000000     3.975000000
C     5.281000000    -4.187000000     4.479000000
H     6.158000000    -4.000000000     5.093000000
C     4.261000000    -3.177000000     4.340000000
O     4.217000000    -2.033000000     5.114000000
C     3.935000000    -0.716000000     4.577000000
C     3.337000000     0.210000000     5.443000000
H     3.214000000    -0.005000000     6.501000000
C     2.890000000     1.461000000     4.924000000
O     2.095000000     2.299000000     5.737000000
C     1.814000000     3.582000000     5.425000000
C     2.866000000     4.513000000     5.305000000
H     3.913000000     4.254000000     5.436000000
C     2.497000000     5.858000000     5.289000000
H     3.297000000     6.510000000     5.628000000
C     1.186000000     6.274000000     5.007000000
H     0.925000000     7.327000000     4.940000000
C     0.150000000     5.345000000     4.984000000
C     0.491000000     4.023000000     5.200000000
H    -0.177000000     3.166000000     5.191000000
C     0.361000000    -1.286000000     1.681000000
H     1.114000000    -1.973000000     2.060000000
C     0.757000000    -0.616000000     0.523000000
H     1.571000000    -1.001000000    -0.086000000
C    -0.082000000     0.424000000     0.052000000
H     0.142000000     0.917000000    -0.918000000
C    -1.256000000     0.698000000     0.721000000
H    -2.042000000     1.370000000     0.386000000
C    -1.658000000    -0.055000000     1.901000000
H    -2.611000000     0.117000000     2.394000000
C    -0.733000000    -0.957000000     2.419000000
C    -1.116000000    -1.746000000     3.538000000
O    -2.179000000    -1.621000000     4.158000000
O    -0.334000000    -2.613000000     3.965000000
O    -2.752000000    -7.462000000     3.007000000
H    -3.577000000    -7.092000000     2.696000000
H    -2.739000000    -7.265000000     3.944000000
O     1.280000000    -2.028000000     6.113000000
H     0.683000000    -2.170000000     5.379000000
H     1.091000000    -1.137000000     6.407000000
O    -0.496000000    -0.917000000     9.842000000
H    -0.645000000    -0.551000000     8.970000000
H    -1.365000000    -1.183000000    10.142000000
O    -2.100000000     1.177000000     4.898000000
H    -2.065000000     1.432000000     3.976000000
H    -2.107000000     0.220000000     4.882000000
O    -4.652000000    -0.636000000     5.229000000
H    -4.388000000    -0.953000000     6.093000000
H    -4.153000000    -1.173000000     4.614000000
O    -3.754000000    -3.860000000     3.549000000
H    -3.374000000    -3.987000000     4.418000000
H    -3.299000000    -3.094000000     3.198000000
O    -3.547000000    -1.752000000     7.376000000
H    -3.137000000    -2.301000000     6.708000000
H    -3.839000000    -2.370000000     8.046000000
O    -3.667000000     3.539000000     6.272000000
H    -4.591000000     3.443000000     6.043000000
H    -3.222000000     2.862000000     5.763000000
O    -7.175000000    -0.057000000     4.387000000
H    -7.660000000    -0.093000000     5.211000000
H    -6.265000000    -0.217000000     4.638000000
O     0.559000000     0.370000000     7.373000000
H    -0.247000000     0.758000000     7.714000000
H     0.963000000     1.070000000     6.859000000
O     2.166000000    -5.261000000     6.334000000
H     2.484000000    -4.476000000     6.779000000
H     1.467000000    -4.945000000     5.762000000
O    -0.500000000    -5.197000000     4.694000000
H    -0.956000000    -5.700000000     4.019000000
H    -0.530000000    -4.293000000     4.380000000
O    -2.129000000     0.904000000     7.647000000
H    -2.433000000     1.113000000     6.764000000
H    -2.483000000     0.032000000     7.822000000
O    -6.475000000    -3.408000000     5.695000000
H    -6.931000000    -3.308000000     4.859000000
H    -6.105000000    -4.290000000     5.662000000
O    -6.288000000    -4.932000000     3.223000000
H    -6.917000000    -4.282000000     2.910000000
H    -5.504000000    -4.425000000     3.433000000
O     2.917000000    -2.703000000     8.040000000
H     2.150000000    -3.011000000     8.523000000
H     2.567000000    -2.404000000     7.201000000
O    -1.141000000    -5.752000000     7.791000000
H    -0.804000000    -6.250000000     7.046000000
H    -1.579000000    -6.406000000     8.336000000
O    -2.324000000    -3.789000000     5.901000000
H    -1.996000000    -3.176000000     5.244000000
H    -1.619000000    -4.427000000     6.007000000
O    -4.293000000    -5.161000000     7.451000000
H    -3.852000000    -4.872000000     6.652000000
H    -4.751000000    -4.382000000     7.767000000
