215
-1465.64508
C    -4.462000000    -2.717000000    -2.214000000
H    -3.938000000    -3.447000000    -2.825000000
C    -4.235000000    -1.328000000    -2.356000000
C    -4.982000000    -0.431000000    -1.506000000
H    -4.934000000     0.651000000    -1.597000000
C    -3.117000000    -0.874000000    -3.188000000
O    -2.556000000    -1.839000000    -4.067000000
H    -2.276000000    -0.708000000    -2.499000000
O    -3.388000000     0.403000000    -3.931000000
C    -2.381000000     1.317000000    -3.968000000
C    -2.519000000     2.445000000    -3.171000000
H    -3.407000000     2.512000000    -2.548000000
C    -1.516000000     3.363000000    -3.035000000
O    -1.589000000     4.350000000    -2.077000000
C    -0.317000000     3.231000000    -3.751000000
C     0.809000000     4.187000000    -3.615000000
H     1.303000000     4.245000000    -4.587000000
C     1.746000000     3.838000000    -2.458000000
C     2.942000000     3.094000000    -2.646000000
H     3.198000000     2.728000000    -3.637000000
H     0.444000000     5.202000000    -3.441000000
C    -0.196000000     2.120000000    -4.656000000
H     0.792000000     1.965000000    -5.081000000
C    -1.197000000     1.158000000    -4.706000000
C    -1.010000000     0.032000000    -5.666000000
H    -0.368000000     0.271000000    -6.516000000
H    -1.921000000    -0.350000000    -6.133000000
C    -0.345000000    -1.047000000    -4.837000000
C     1.061000000    -1.163000000    -4.759000000
H     1.635000000    -0.408000000    -5.290000000
C    -1.165000000    -1.975000000    -4.144000000
C    -0.555000000    -2.860000000    -3.273000000
H    -1.124000000    -3.613000000    -2.733000000
C     0.815000000    -3.005000000    -3.278000000
O     1.324000000    -3.825000000    -2.346000000
C     1.739000000    -3.365000000    -1.009000000
C     1.294000000    -4.419000000     0.075000000
C     2.087000000    -4.526000000     1.268000000
H     2.995000000    -3.930000000     1.303000000
C     0.037000000    -5.145000000    -0.007000000
H    -0.621000000    -5.082000000    -0.870000000
O     3.183000000    -3.321000000    -1.054000000
H     1.279000000    -2.435000000    -0.642000000
C     1.651000000    -2.121000000    -3.973000000
C     3.165000000    -2.217000000    -3.802000000
H     3.678000000    -1.846000000    -4.691000000
H     3.461000000    -3.267000000    -3.754000000
C     3.773000000    -1.498000000    -2.611000000
C     4.451000000    -0.306000000    -2.868000000
H     4.593000000     0.177000000    -3.832000000
C     3.852000000    -2.091000000    -1.309000000
C     4.366000000    -1.354000000    -0.262000000
H     4.353000000    -1.669000000     0.778000000
C     4.827000000    -0.057000000    -0.455000000
O     5.063000000     0.645000000     0.679000000
C     3.946000000     1.470000000     1.288000000
C     3.835000000     1.247000000     2.807000000
C     4.067000000    -0.023000000     3.343000000
H     4.441000000    -0.767000000     2.645000000
C     3.568000000     2.296000000     3.622000000
H     3.390000000     3.240000000     3.114000000
O     4.214000000     2.837000000     0.879000000
H     2.973000000     1.191000000     0.857000000
C     4.900000000     0.439000000    -1.780000000
C     5.128000000     1.955000000    -1.896000000
H     5.527000000     2.164000000    -2.891000000
H     5.884000000     2.285000000    -1.180000000
C     3.816000000     2.784000000    -1.577000000
C     3.476000000     3.179000000    -0.272000000
C     2.261000000     3.860000000    -0.055000000
H     1.911000000     4.252000000     0.897000000
C     1.412000000     4.168000000    -1.111000000
O     0.267000000     4.890000000    -0.810000000
C    -0.960000000     4.123000000    -0.810000000
H    -0.694000000     3.062000000    -0.687000000
C    -1.843000000     4.421000000     0.466000000
C    -3.229000000     4.477000000     0.467000000
H    -3.711000000     4.332000000    -0.496000000
C    -1.224000000     4.527000000     1.699000000
H    -0.137000000     4.526000000     1.703000000
C    -1.931000000     4.636000000     2.865000000
O    -1.409000000     4.508000000     4.167000000
C    -3.301000000     4.656000000     2.897000000
H    -3.863000000     4.888000000     3.798000000
C    -3.965000000     4.585000000     1.656000000
O    -5.338000000     4.367000000     1.762000000
C    -5.950000000     3.530000000     0.923000000
C    -5.643000000     2.214000000     0.820000000
H    -4.742000000     1.810000000     1.275000000
C    -7.144000000     3.982000000     0.404000000
H    -7.289000000     5.059000000     0.435000000
C    -7.986000000     3.146000000    -0.421000000
H    -8.831000000     3.620000000    -0.913000000
C    -7.734000000     1.796000000    -0.414000000
H    -8.382000000     1.091000000    -0.929000000
C    -6.521000000     1.324000000     0.244000000
O    -6.345000000    -0.062000000     0.424000000
C    -5.799000000    -0.946000000    -0.525000000
C    -5.926000000    -2.324000000    -0.310000000
H    -6.538000000    -2.782000000     0.463000000
C    -5.264000000    -3.164000000    -1.190000000
O    -5.471000000    -4.561000000    -1.159000000
C    -4.516000000    -5.480000000    -0.943000000
C    -3.607000000    -5.409000000     0.128000000
H    -3.598000000    -4.527000000     0.763000000
C    -4.469000000    -6.559000000    -1.781000000
H    -5.175000000    -6.460000000    -2.602000000
C    -3.432000000    -7.484000000    -1.739000000
H    -3.321000000    -8.222000000    -2.529000000
C    -2.537000000    -7.399000000    -0.717000000
H    -1.801000000    -8.183000000    -0.557000000
C    -2.686000000    -6.425000000     0.263000000
O    -1.648000000    -6.407000000     1.176000000
C    -0.370000000    -5.867000000     1.126000000
C     0.358000000    -5.782000000     2.333000000
H    -0.116000000    -6.087000000     3.262000000
C     1.578000000    -5.217000000     2.400000000
O     2.217000000    -5.262000000     3.604000000
C     3.417000000    -4.554000000     3.768000000
C     3.401000000    -3.254000000     4.358000000
H     2.421000000    -2.854000000     4.605000000
C     4.636000000    -5.149000000     3.485000000
H     4.770000000    -6.190000000     3.201000000
C     5.778000000    -4.531000000     3.886000000
H     6.743000000    -5.003000000     3.723000000
C     5.735000000    -3.239000000     4.391000000
H     6.625000000    -2.881000000     4.902000000
C     4.554000000    -2.572000000     4.644000000
O     4.593000000    -1.346000000     5.216000000
C     4.160000000    -0.160000000     4.697000000
C     3.774000000     0.906000000     5.579000000
H     3.739000000     0.712000000     6.648000000
C     3.527000000     2.134000000     4.977000000
O     3.061000000     3.232000000     5.814000000
C     2.068000000     4.165000000     5.362000000
C     2.493000000     5.502000000     5.241000000
H     3.456000000     5.814000000     5.635000000
C     1.554000000     6.421000000     4.838000000
H     1.841000000     7.470000000     4.851000000
C     0.296000000     6.055000000     4.420000000
H    -0.390000000     6.813000000     4.051000000
C    -0.112000000     4.739000000     4.506000000
C     0.784000000     3.788000000     5.002000000
H     0.594000000     2.719000000     5.037000000
C     0.314000000     0.063000000     1.991000000
H     0.473000000    -0.472000000     2.924000000
C     1.134000000    -0.270000000     0.968000000
H     2.019000000    -0.886000000     1.110000000
C     0.746000000    -0.039000000    -0.358000000
H     1.413000000    -0.397000000    -1.171000000
C    -0.472000000     0.549000000    -0.661000000
H    -0.667000000     0.808000000    -1.699000000
C    -1.342000000     0.866000000     0.366000000
H    -2.248000000     1.439000000     0.186000000
C    -0.993000000     0.557000000     1.679000000
C    -2.079000000     0.614000000     2.805000000
O    -3.205000000     0.553000000     2.456000000
O    -1.802000000     0.611000000     3.977000000
O     0.572000000    -0.179000000     5.173000000
H    -0.161000000     0.190000000     4.679000000
H     0.273000000    -1.051000000     5.428000000
O    -1.937000000     0.421000000     8.141000000
H    -1.089000000     0.800000000     7.910000000
H    -2.247000000     0.015000000     7.331000000
O    -7.775000000     2.858000000     3.772000000
H    -7.503000000     3.699000000     3.405000000
H    -8.665000000     2.729000000     3.443000000
O    -5.501000000     5.128000000     6.307000000
H    -5.191000000     4.467000000     5.688000000
H    -6.103000000     5.670000000     5.798000000
O    -4.231000000     2.598000000     5.326000000
H    -3.733000000     2.453000000     6.131000000
H    -3.746000000     2.116000000     4.656000000
O    -5.678000000     0.172000000     3.316000000
H    -5.746000000     0.925000000     3.904000000
H    -4.743000000     0.103000000     3.124000000
O    -3.337000000    -1.832000000     1.218000000
H    -3.070000000    -1.559000000     0.340000000
H    -3.206000000    -1.055000000     1.761000000
O    -3.402000000     3.002000000     8.560000000
H    -4.204000000     2.695000000     8.981000000
H    -2.764000000     2.308000000     8.724000000
O    -0.112000000     4.062000000     8.333000000
H    -0.931000000     4.083000000     7.838000000
H     0.361000000     3.307000000     7.982000000
O    -6.754000000    -2.501000000     6.737000000
H    -6.204000000    -2.871000000     6.046000000
H    -6.357000000    -1.651000000     6.929000000
O    -8.385000000    -0.682000000     2.874000000
H    -7.445000000    -0.525000000     2.789000000
H    -8.747000000     0.164000000     3.137000000
O    -2.584000000     5.564000000     6.735000000
H    -3.394000000     5.083000000     6.906000000
H    -2.118000000     5.026000000     6.094000000
O    -0.976000000    -3.031000000     2.573000000
H    -0.373000000    -3.514000000     2.007000000
H    -1.643000000    -2.692000000     1.976000000
O    -5.738000000     0.098000000     7.352000000
H    -4.894000000    -0.014000000     6.914000000
H    -5.884000000     1.044000000     7.352000000
O     0.381000000     1.399000000     7.251000000
H     0.622000000     1.082000000     6.380000000
H     1.047000000     1.031000000     7.832000000
O    -4.273000000    -3.284000000     5.272000000
H    -3.817000000    -4.126000000     5.253000000
H    -4.090000000    -2.893000000     4.419000000
O    -5.540000000    -2.583000000     2.792000000
H    -5.864000000    -1.759000000     3.156000000
H    -4.886000000    -2.318000000     2.145000000
O    -0.537000000    -2.814000000     5.320000000
H    -0.584000000    -2.993000000     4.381000000
H    -0.582000000    -3.677000000     5.731000000
O    -3.098000000    -0.653000000     5.846000000
H    -2.606000000    -0.253000000     5.130000000
H    -3.064000000    -1.592000000     5.666000000
