215
-1456.32188
C    -3.986000000    -2.417000000    -2.395000000
H    -3.384000000    -3.252000000    -2.744000000
C    -3.726000000    -1.121000000    -2.706000000
C    -4.506000000    -0.047000000    -2.194000000
H    -4.279000000     1.000000000    -2.378000000
C    -2.408000000    -0.753000000    -3.398000000
O    -1.910000000    -1.889000000    -4.118000000
H    -1.706000000    -0.545000000    -2.577000000
O    -2.536000000     0.461000000    -4.262000000
C    -1.563000000     1.379000000    -4.123000000
C    -1.777000000     2.608000000    -3.475000000
H    -2.783000000     2.814000000    -3.118000000
C    -0.695000000     3.512000000    -3.310000000
O    -0.901000000     4.560000000    -2.389000000
C     0.554000000     3.281000000    -3.825000000
C     1.741000000     4.124000000    -3.484000000
H     2.435000000     4.062000000    -4.325000000
C     2.353000000     3.653000000    -2.166000000
C     3.440000000     2.789000000    -2.138000000
H     3.858000000     2.441000000    -3.079000000
H     1.533000000     5.189000000    -3.365000000
C     0.717000000     2.102000000    -4.549000000
H     1.722000000     1.819000000    -4.849000000
C    -0.322000000     1.197000000    -4.760000000
C    -0.068000000    -0.082000000    -5.511000000
H     0.665000000     0.040000000    -6.311000000
H    -0.947000000    -0.408000000    -6.072000000
C     0.304000000    -1.314000000    -4.631000000
C     1.690000000    -1.566000000    -4.455000000
H     2.446000000    -1.010000000    -5.004000000
C    -0.590000000    -2.148000000    -3.981000000
C    -0.178000000    -3.145000000    -3.138000000
H    -0.951000000    -3.748000000    -2.668000000
C     1.195000000    -3.321000000    -2.857000000
O     1.546000000    -4.352000000    -1.987000000
C     1.826000000    -3.864000000    -0.618000000
C     1.109000000    -4.663000000     0.454000000
C     1.692000000    -4.975000000     1.749000000
H     2.654000000    -4.495000000     1.909000000
C    -0.190000000    -5.151000000     0.203000000
H    -0.696000000    -4.935000000    -0.734000000
O     3.308000000    -3.718000000    -0.417000000
H     1.290000000    -2.911000000    -0.498000000
C     2.133000000    -2.471000000    -3.425000000
C     3.600000000    -2.659000000    -3.107000000
H     4.237000000    -2.378000000    -3.948000000
H     3.748000000    -3.733000000    -2.974000000
C     4.083000000    -1.903000000    -1.923000000
C     4.660000000    -0.601000000    -1.989000000
H     4.794000000    -0.144000000    -2.966000000
C     3.868000000    -2.495000000    -0.623000000
C     4.281000000    -1.828000000     0.530000000
H     4.087000000    -2.195000000     1.534000000
C     4.862000000    -0.575000000     0.399000000
O     4.848000000     0.198000000     1.545000000
C     3.606000000     0.907000000     1.805000000
C     3.273000000     0.845000000     3.332000000
C     3.505000000    -0.333000000     4.148000000
H     4.077000000    -1.146000000     3.709000000
C     2.546000000     1.921000000     3.824000000
H     2.269000000     2.725000000     3.147000000
O     3.846000000     2.269000000     1.391000000
H     2.757000000     0.556000000     1.200000000
C     4.956000000     0.066000000    -0.805000000
C     5.257000000     1.566000000    -0.959000000
H     5.895000000     1.758000000    -1.825000000
H     5.833000000     1.970000000    -0.124000000
C     4.006000000     2.379000000    -0.986000000
C     3.449000000     2.767000000     0.211000000
C     2.380000000     3.635000000     0.244000000
H     1.982000000     4.025000000     1.177000000
C     1.880000000     4.122000000    -0.958000000
O     0.768000000     4.880000000    -0.888000000
C    -0.482000000     4.201000000    -1.072000000
H    -0.242000000     3.131000000    -0.992000000
C    -1.465000000     4.631000000    -0.053000000
C    -2.831000000     4.547000000    -0.218000000
H    -3.220000000     4.096000000    -1.127000000
C    -1.017000000     5.217000000     1.109000000
H     0.028000000     5.436000000     1.312000000
C    -1.900000000     5.657000000     2.121000000
O    -1.481000000     6.187000000     3.373000000
C    -3.310000000     5.560000000     1.861000000
H    -4.087000000     5.933000000     2.523000000
C    -3.776000000     5.130000000     0.564000000
O    -5.092000000     5.130000000     0.236000000
C    -5.745000000     4.127000000    -0.442000000
C    -5.724000000     2.774000000    -0.116000000
H    -5.215000000     2.420000000     0.776000000
C    -6.472000000     4.591000000    -1.560000000
H    -6.454000000     5.619000000    -1.911000000
C    -7.061000000     3.593000000    -2.390000000
H    -7.673000000     3.968000000    -3.207000000
C    -6.986000000     2.212000000    -2.047000000
H    -7.647000000     1.485000000    -2.512000000
C    -6.305000000     1.835000000    -0.882000000
O    -6.153000000     0.534000000    -0.581000000
C    -5.577000000    -0.421000000    -1.293000000
C    -5.909000000    -1.744000000    -1.107000000
H    -6.739000000    -2.145000000    -0.532000000
C    -5.180000000    -2.779000000    -1.713000000
O    -5.544000000    -4.081000000    -1.402000000
C    -4.656000000    -5.134000000    -1.417000000
C    -3.748000000    -5.293000000    -0.311000000
H    -3.642000000    -4.369000000     0.251000000
C    -4.638000000    -6.156000000    -2.371000000
H    -5.242000000    -6.045000000    -3.267000000
C    -3.714000000    -7.224000000    -2.283000000
H    -3.534000000    -7.946000000    -3.076000000
C    -2.887000000    -7.344000000    -1.152000000
H    -2.245000000    -8.219000000    -1.085000000
C    -2.850000000    -6.339000000    -0.205000000
O    -2.068000000    -6.441000000     0.962000000
C    -0.873000000    -5.776000000     1.232000000
C    -0.313000000    -6.031000000     2.488000000
H    -0.913000000    -6.531000000     3.244000000
C     0.968000000    -5.559000000     2.767000000
O     1.319000000    -5.693000000     4.099000000
C     2.408000000    -4.835000000     4.520000000
C     2.171000000    -3.519000000     4.948000000
H     1.215000000    -3.019000000     4.816000000
C     3.638000000    -5.414000000     4.881000000
H     3.707000000    -6.476000000     4.660000000
C     4.638000000    -4.633000000     5.390000000
H     5.671000000    -4.967000000     5.452000000
C     4.444000000    -3.355000000     5.765000000
H     5.162000000    -2.688000000     6.235000000
C     3.174000000    -2.809000000     5.622000000
O     2.902000000    -1.571000000     6.121000000
C     2.850000000    -0.385000000     5.357000000
C     2.134000000     0.678000000     5.862000000
H     1.637000000     0.595000000     6.825000000
C     2.003000000     1.837000000     5.064000000
O     1.198000000     2.779000000     5.621000000
C     0.966000000     4.072000000     5.167000000
C     1.978000000     5.038000000     5.409000000
H     2.871000000     4.822000000     5.990000000
C     1.807000000     6.345000000     4.968000000
H     2.587000000     7.079000000     5.156000000
C     0.688000000     6.679000000     4.289000000
H     0.500000000     7.700000000     3.967000000
C    -0.343000000     5.779000000     4.061000000
C    -0.184000000     4.438000000     4.500000000
H    -0.956000000     3.686000000     4.361000000
C    -0.922000000    -1.447000000     1.410000000
H    -1.271000000    -2.477000000     1.406000000
C    -0.504000000    -0.879000000     0.153000000
H    -0.484000000    -1.419000000    -0.790000000
C    -0.009000000     0.394000000     0.088000000
H     0.371000000     0.932000000    -0.795000000
C     0.088000000     1.162000000     1.216000000
H     0.462000000     2.181000000     1.163000000
C    -0.276000000     0.611000000     2.464000000
H    -0.096000000     1.112000000     3.412000000
C    -0.795000000    -0.706000000     2.565000000
C    -1.423000000    -1.132000000     3.900000000
O    -1.307000000    -0.428000000     4.864000000
O    -1.917000000    -2.231000000     3.997000000
O    -1.665000000    -3.442000000     8.177000000
H    -0.907000000    -3.863000000     7.771000000
H    -1.287000000    -2.793000000     8.772000000
O    -1.020000000     0.405000000     7.367000000
H    -1.182000000    -0.396000000     7.866000000
H    -1.193000000     0.160000000     6.458000000
O    -3.946000000    -0.435000000     8.758000000
H    -4.192000000     0.403000000     8.367000000
H    -3.832000000    -1.023000000     8.012000000
O    -0.304000000    -6.374000000     7.056000000
H    -0.213000000    -7.295000000     7.300000000
H     0.475000000    -6.188000000     6.532000000
O     0.285000000    -1.717000000     9.082000000
H     1.111000000    -2.195000000     9.010000000
H     0.542000000    -0.832000000     9.341000000
O    -3.275000000     1.566000000     3.875000000
H    -3.912000000     1.412000000     4.572000000
H    -2.468000000     1.162000000     4.194000000
O    -4.108000000     0.215000000     1.493000000
H    -3.802000000     0.810000000     2.177000000
H    -3.541000000     0.400000000     0.744000000
O    -4.202000000    -2.507000000     2.189000000
H    -3.446000000    -2.510000000     2.777000000
H    -4.397000000    -1.580000000     2.054000000
O    -4.096000000     2.138000000     7.874000000
H    -4.704000000     2.744000000     8.297000000
H    -3.230000000     2.504000000     8.053000000
O    -4.659000000    -5.125000000     2.853000000
H    -3.954000000    -5.400000000     3.438000000
H    -4.318000000    -4.344000000     2.417000000
O    -6.830000000    -0.330000000     2.031000000
H    -6.116000000    -0.172000000     1.413000000
H    -7.262000000     0.519000000     2.120000000
O    -5.581000000     1.313000000     5.434000000
H    -6.095000000     0.534000000     5.222000000
H    -5.273000000     1.161000000     6.327000000
O     0.415000000     1.395000000     9.900000000
H     1.071000000     2.059000000     9.691000000
H    -0.191000000     1.415000000     9.159000000
O    -7.367000000    -2.531000000     5.939000000
H    -6.520000000    -2.964000000     6.041000000
H    -7.685000000    -2.824000000     5.085000000
O    -5.187000000    -3.787000000     6.739000000
H    -4.388000000    -3.272000000     6.853000000
H    -4.920000000    -4.687000000     6.927000000
O    -3.458000000    -7.106000000     4.939000000
H    -2.799000000    -6.425000000     4.801000000
H    -3.693000000    -7.028000000     5.864000000
O    -2.128000000    -4.662000000     5.033000000
H    -1.740000000    -4.573000000     5.904000000
H    -1.981000000    -3.812000000     4.617000000
O    -3.275000000    -1.714000000     6.648000000
H    -3.171000000    -1.282000000     5.801000000
H    -2.689000000    -2.470000000     6.605000000
O    -7.440000000    -2.977000000     2.346000000
H    -6.588000000    -3.213000000     1.979000000
H    -7.469000000    -2.022000000     2.287000000
