215
-1434.10390
C    -4.206000000    -1.799000000    -1.806000000
H    -3.500000000    -2.529000000    -2.195000000
C    -4.001000000    -0.463000000    -2.109000000
C    -4.975000000     0.469000000    -1.720000000
H    -4.954000000     1.508000000    -2.041000000
C    -2.885000000     0.037000000    -2.953000000
O    -2.516000000    -0.884000000    -3.978000000
H    -1.994000000     0.227000000    -2.337000000
O    -3.101000000     1.280000000    -3.529000000
C    -2.074000000     2.168000000    -3.543000000
C    -2.151000000     3.112000000    -2.500000000
H    -3.010000000     3.211000000    -1.841000000
C    -1.069000000     4.008000000    -2.270000000
O    -1.026000000     4.866000000    -1.193000000
C     0.084000000     3.943000000    -3.124000000
C     1.349000000     4.791000000    -2.883000000
H     1.905000000     4.830000000    -3.822000000
C     2.226000000     4.072000000    -1.851000000
C     3.282000000     3.201000000    -2.270000000
H     3.475000000     2.896000000    -3.296000000
H     1.050000000     5.794000000    -2.570000000
C     0.131000000     2.971000000    -4.110000000
H     0.965000000     2.884000000    -4.802000000
C    -0.909000000     2.124000000    -4.347000000
C    -0.827000000     0.994000000    -5.312000000
H    -0.193000000     1.251000000    -6.163000000
H    -1.848000000     0.854000000    -5.674000000
C    -0.329000000    -0.273000000    -4.749000000
C     1.032000000    -0.620000000    -4.925000000
H     1.740000000    -0.064000000    -5.534000000
C    -1.176000000    -1.164000000    -4.160000000
C    -0.740000000    -2.406000000    -3.785000000
H    -1.374000000    -3.059000000    -3.190000000
C     0.602000000    -2.733000000    -3.829000000
O     0.916000000    -3.846000000    -3.093000000
C     1.556000000    -3.792000000    -1.797000000
C     1.020000000    -4.909000000    -0.867000000
C     1.556000000    -4.995000000     0.363000000
H     2.267000000    -4.261000000     0.733000000
C    -0.153000000    -5.582000000    -1.188000000
H    -0.632000000    -5.494000000    -2.160000000
O     3.016000000    -3.886000000    -1.910000000
H     1.250000000    -2.801000000    -1.430000000
C     1.521000000    -1.841000000    -4.366000000
C     2.938000000    -2.259000000    -4.413000000
H     3.442000000    -1.686000000    -5.194000000
H     3.281000000    -3.267000000    -4.653000000
C     3.675000000    -1.893000000    -3.127000000
C     4.163000000    -0.531000000    -3.035000000
H     4.124000000     0.155000000    -3.877000000
C     3.709000000    -2.693000000    -1.977000000
C     4.146000000    -2.161000000    -0.786000000
H     4.051000000    -2.824000000     0.070000000
C     4.657000000    -0.859000000    -0.687000000
O     4.841000000    -0.321000000     0.561000000
C     3.960000000     0.592000000     1.318000000
C     3.905000000     0.282000000     2.847000000
C     3.947000000    -1.023000000     3.282000000
H     4.192000000    -1.860000000     2.633000000
C     3.521000000     1.255000000     3.819000000
H     3.551000000     2.312000000     3.567000000
O     4.421000000     2.003000000     1.102000000
H     2.932000000     0.459000000     0.949000000
C     4.662000000    -0.008000000    -1.846000000
C     5.136000000     1.452000000    -1.751000000
H     5.571000000     1.617000000    -2.739000000
H     6.024000000     1.477000000    -1.115000000
C     4.000000000     2.474000000    -1.308000000
C     3.851000000     2.684000000     0.083000000
C     2.820000000     3.525000000     0.471000000
H     2.562000000     3.675000000     1.516000000
C     2.025000000     4.204000000    -0.462000000
O     0.932000000     4.871000000     0.138000000
C    -0.334000000     4.240000000    -0.121000000
H    -0.258000000     3.167000000    -0.351000000
C    -1.166000000     4.473000000     1.145000000
C    -2.532000000     4.625000000     1.062000000
H    -2.963000000     4.686000000     0.066000000
C    -0.602000000     4.219000000     2.414000000
H     0.476000000     4.139000000     2.534000000
C    -1.419000000     4.346000000     3.519000000
O    -0.901000000     4.265000000     4.781000000
C    -2.842000000     4.425000000     3.425000000
H    -3.472000000     4.475000000     4.310000000
C    -3.388000000     4.585000000     2.143000000
O    -4.804000000     4.773000000     1.979000000
C    -5.622000000     4.236000000     1.003000000
C    -5.776000000     2.804000000     0.831000000
H    -5.169000000     2.079000000     1.367000000
C    -6.473000000     5.097000000     0.342000000
H    -6.504000000     6.177000000     0.460000000
C    -7.575000000     4.501000000    -0.365000000
H    -8.411000000     5.075000000    -0.755000000
C    -7.656000000     3.152000000    -0.611000000
H    -8.508000000     2.825000000    -1.201000000
C    -6.650000000     2.300000000    -0.139000000
O    -6.912000000     0.942000000    -0.251000000
C    -5.933000000     0.028000000    -0.792000000
C    -6.042000000    -1.319000000    -0.466000000
H    -6.889000000    -1.705000000     0.096000000
C    -5.183000000    -2.229000000    -1.012000000
O    -5.251000000    -3.532000000    -0.542000000
C    -4.733000000    -4.685000000    -1.064000000
C    -3.749000000    -5.416000000    -0.357000000
H    -3.372000000    -5.078000000     0.605000000
C    -5.056000000    -5.061000000    -2.351000000
H    -5.829000000    -4.518000000    -2.888000000
C    -4.452000000    -6.167000000    -2.982000000
H    -4.837000000    -6.598000000    -3.903000000
C    -3.400000000    -6.772000000    -2.315000000
H    -2.861000000    -7.557000000    -2.839000000
C    -2.985000000    -6.348000000    -1.041000000
O    -1.947000000    -6.946000000    -0.433000000
C    -0.793000000    -6.326000000    -0.155000000
C    -0.207000000    -6.449000000     1.069000000
H    -0.706000000    -7.012000000     1.853000000
C     0.985000000    -5.753000000     1.374000000
O     1.499000000    -5.904000000     2.651000000
C     2.642000000    -5.384000000     3.214000000
C     2.670000000    -4.154000000     3.858000000
H     1.786000000    -3.524000000     3.918000000
C     3.848000000    -6.133000000     3.222000000
H     3.896000000    -7.162000000     2.876000000
C     5.024000000    -5.696000000     3.856000000
H     5.912000000    -6.313000000     3.747000000
C     5.013000000    -4.480000000     4.499000000
H     5.890000000    -3.983000000     4.905000000
C     3.832000000    -3.690000000     4.483000000
O     3.724000000    -2.569000000     5.251000000
C     3.737000000    -1.253000000     4.655000000
C     3.480000000    -0.337000000     5.624000000
H     3.574000000    -0.658000000     6.659000000
C     3.355000000     0.997000000     5.198000000
O     3.269000000     2.078000000     6.073000000
C     2.457000000     3.262000000     5.984000000
C     2.823000000     4.424000000     6.645000000
H     3.717000000     4.436000000     7.263000000
C     2.085000000     5.626000000     6.553000000
H     2.512000000     6.576000000     6.866000000
C     0.844000000     5.544000000     5.940000000
H     0.191000000     6.408000000     6.032000000
C     0.424000000     4.335000000     5.269000000
C     1.254000000     3.244000000     5.292000000
H     0.946000000     2.363000000     4.734000000
C    -1.249000000    -1.789000000     1.045000000
H    -1.789000000    -2.729000000     1.112000000
C    -0.762000000    -1.342000000    -0.194000000
H    -0.964000000    -1.880000000    -1.116000000
C     0.007000000    -0.144000000    -0.268000000
H     0.238000000     0.223000000    -1.259000000
C     0.256000000     0.590000000     0.936000000
H     0.782000000     1.539000000     0.865000000
C    -0.086000000     0.052000000     2.130000000
H     0.213000000     0.577000000     3.033000000
C    -0.812000000    -1.115000000     2.241000000
C    -1.165000000    -1.801000000     3.587000000
O    -0.982000000    -1.224000000     4.661000000
O    -1.847000000    -2.817000000     3.550000000
O    -6.399000000    -1.647000000     5.199000000
H    -5.468000000    -1.596000000     5.415000000
H    -6.765000000    -2.240000000     5.856000000
O    -0.419000000    -7.917000000     4.425000000
H    -1.301000000    -8.099000000     4.101000000
H    -0.327000000    -6.968000000     4.349000000
O     0.137000000    -2.112000000     7.032000000
H     0.528000000    -2.875000000     6.606000000
H    -0.536000000    -1.814000000     6.420000000
O    -1.074000000     0.860000000     6.478000000
H    -1.548000000     1.521000000     5.974000000
H    -0.871000000     0.174000000     5.843000000
O    -3.586000000    -7.957000000     1.485000000
H    -4.394000000    -7.923000000     0.973000000
H    -2.920000000    -7.587000000     0.905000000
O    -5.369000000     1.599000000     4.507000000
H    -5.167000000     2.272000000     5.157000000
H    -6.171000000     1.188000000     4.830000000
O    -6.363000000    -2.055000000     2.450000000
H    -5.561000000    -1.553000000     2.302000000
H    -6.528000000    -1.972000000     3.389000000
O     0.280000000     0.219000000     8.677000000
H    -0.261000000     0.575000000     7.972000000
H     0.687000000    -0.560000000     8.296000000
O    -3.790000000    -0.634000000     2.673000000
H    -2.840000000    -0.550000000     2.753000000
H    -4.138000000     0.129000000     3.134000000
O    -4.337000000    -4.053000000     3.606000000
H    -3.424000000    -3.770000000     3.558000000
H    -4.762000000    -3.617000000     2.866000000
O    -3.895000000     0.033000000     8.955000000
H    -3.272000000     0.308000000     8.282000000
H    -4.214000000    -0.817000000     8.653000000
O     3.258000000    -0.961000000     9.058000000
H     2.370000000    -0.762000000     8.763000000
H     3.284000000    -1.916000000     9.112000000
O    -2.970000000    -2.510000000    10.623000000
H    -3.176000000    -2.611000000     9.693000000
H    -2.230000000    -3.101000000    10.769000000
O    -3.789000000    -2.079000000     5.467000000
H    -4.233000000    -2.794000000     5.013000000
H    -3.004000000    -1.913000000     4.944000000
O    -3.099000000    -7.024000000     6.025000000
H    -2.440000000    -6.332000000     6.086000000
H    -2.764000000    -7.615000000     5.350000000
O     0.806000000    -5.141000000     6.721000000
H     0.377000000    -5.903000000     7.110000000
H     0.700000000    -4.448000000     7.372000000
O    -0.950000000    -5.191000000     4.344000000
H    -0.382000000    -5.002000000     5.091000000
H    -1.229000000    -4.330000000     4.032000000
O    -4.120000000    -2.821000000     7.913000000
H    -4.771000000    -3.480000000     7.671000000
H    -3.794000000    -2.488000000     7.076000000
O    -5.254000000    -5.102000000     5.986000000
H    -4.617000000    -5.767000000     6.247000000
H    -5.003000000    -4.868000000     5.093000000
