215
-1448.44937
C    -4.477000000    -1.334000000    -1.736000000
H    -3.821000000    -2.121000000    -2.102000000
C    -4.343000000    -0.019000000    -2.087000000
C    -5.217000000     0.924000000    -1.560000000
H    -5.034000000     1.990000000    -1.670000000
C    -3.223000000     0.298000000    -3.053000000
O    -3.030000000    -0.735000000    -4.094000000
H    -2.289000000     0.264000000    -2.473000000
O    -3.413000000     1.653000000    -3.636000000
C    -2.318000000     2.396000000    -3.614000000
C    -2.211000000     3.342000000    -2.580000000
H    -3.054000000     3.410000000    -1.898000000
C    -1.072000000     4.033000000    -2.302000000
O    -0.977000000     4.738000000    -1.082000000
C     0.024000000     3.888000000    -3.117000000
C     1.325000000     4.552000000    -2.821000000
H     1.800000000     4.849000000    -3.759000000
C     2.291000000     3.857000000    -1.887000000
C     3.221000000     2.897000000    -2.336000000
H     3.251000000     2.665000000    -3.397000000
H     1.114000000     5.509000000    -2.339000000
C    -0.080000000     2.993000000    -4.207000000
H     0.786000000     2.864000000    -4.852000000
C    -1.200000000     2.230000000    -4.437000000
C    -1.212000000     1.131000000    -5.513000000
H    -0.535000000     1.320000000    -6.349000000
H    -2.205000000     1.047000000    -5.960000000
C    -0.802000000    -0.188000000    -4.906000000
C     0.550000000    -0.539000000    -4.903000000
H     1.300000000     0.106000000    -5.354000000
C    -1.710000000    -1.148000000    -4.294000000
C    -1.245000000    -2.322000000    -3.737000000
H    -1.893000000    -3.101000000    -3.344000000
C     0.091000000    -2.584000000    -3.743000000
O     0.545000000    -3.727000000    -3.102000000
C     1.236000000    -3.597000000    -1.821000000
C     0.609000000    -4.540000000    -0.791000000
C     1.119000000    -4.597000000     0.477000000
H     1.885000000    -3.913000000     0.833000000
C    -0.539000000    -5.255000000    -1.051000000
H    -0.961000000    -5.167000000    -2.049000000
O     2.725000000    -3.688000000    -1.862000000
H     0.885000000    -2.619000000    -1.462000000
C     1.009000000    -1.732000000    -4.291000000
C     2.533000000    -1.971000000    -4.320000000
H     2.872000000    -1.441000000    -5.213000000
H     2.696000000    -3.038000000    -4.490000000
C     3.297000000    -1.641000000    -3.037000000
C     4.003000000    -0.439000000    -3.102000000
H     3.872000000     0.309000000    -3.880000000
C     3.421000000    -2.479000000    -1.931000000
C     4.221000000    -2.084000000    -0.850000000
H     4.282000000    -2.745000000     0.011000000
C     4.788000000    -0.813000000    -0.884000000
O     5.291000000    -0.402000000     0.311000000
C     4.474000000     0.510000000     1.181000000
C     4.566000000     0.073000000     2.650000000
C     4.638000000    -1.272000000     3.011000000
H     4.678000000    -2.082000000     2.288000000
C     4.515000000     1.082000000     3.609000000
H     4.505000000     2.089000000     3.199000000
O     4.776000000     1.892000000     0.855000000
H     3.448000000     0.259000000     0.871000000
C     4.638000000     0.013000000    -1.986000000
C     5.211000000     1.422000000    -1.914000000
H     5.463000000     1.741000000    -2.927000000
H     6.115000000     1.435000000    -1.301000000
C     4.086000000     2.315000000    -1.427000000
C     3.997000000     2.543000000    -0.044000000
C     2.998000000     3.372000000     0.443000000
H     2.967000000     3.545000000     1.516000000
C     2.134000000     3.989000000    -0.477000000
O     1.099000000     4.682000000     0.042000000
C    -0.222000000     4.062000000    -0.018000000
H    -0.031000000     3.012000000    -0.285000000
C    -0.909000000     3.991000000     1.292000000
C    -2.265000000     4.059000000     1.253000000
H    -2.833000000     4.201000000     0.338000000
C    -0.197000000     3.535000000     2.426000000
H     0.859000000     3.285000000     2.486000000
C    -0.921000000     3.511000000     3.633000000
O    -0.299000000     3.049000000     4.774000000
C    -2.274000000     3.859000000     3.632000000
H    -2.860000000     3.860000000     4.547000000
C    -2.949000000     3.985000000     2.451000000
O    -4.318000000     3.880000000     2.507000000
C    -5.241000000     3.935000000     1.468000000
C    -5.641000000     2.691000000     0.998000000
H    -4.988000000     1.832000000     1.124000000
C    -5.959000000     5.140000000     1.202000000
H    -5.643000000     6.071000000     1.666000000
C    -7.137000000     5.040000000     0.444000000
H    -7.656000000     5.984000000     0.299000000
C    -7.492000000     3.807000000    -0.167000000
H    -8.359000000     3.755000000    -0.821000000
C    -6.758000000     2.684000000     0.158000000
O    -7.119000000     1.471000000    -0.288000000
C    -6.224000000     0.548000000    -0.684000000
C    -6.248000000    -0.756000000    -0.261000000
H    -7.056000000    -1.114000000     0.372000000
C    -5.449000000    -1.697000000    -0.764000000
O    -5.579000000    -3.025000000    -0.251000000
C    -5.137000000    -4.157000000    -0.897000000
C    -4.102000000    -4.849000000    -0.269000000
H    -3.722000000    -4.471000000     0.677000000
C    -5.714000000    -4.558000000    -2.107000000
H    -6.491000000    -3.942000000    -2.553000000
C    -5.210000000    -5.750000000    -2.591000000
H    -5.529000000    -6.088000000    -3.573000000
C    -4.148000000    -6.416000000    -2.017000000
H    -3.675000000    -7.234000000    -2.553000000
C    -3.504000000    -5.972000000    -0.873000000
O    -2.401000000    -6.643000000    -0.288000000
C    -1.226000000    -5.981000000    -0.028000000
C    -0.696000000    -6.096000000     1.224000000
H    -1.158000000    -6.740000000     1.968000000
C     0.503000000    -5.384000000     1.467000000
O     0.980000000    -5.450000000     2.741000000
C     2.296000000    -5.165000000     2.998000000
C     2.708000000    -4.156000000     3.876000000
H     1.971000000    -3.481000000     4.301000000
C     3.312000000    -5.966000000     2.437000000
H     3.101000000    -6.690000000     1.654000000
C     4.650000000    -5.800000000     2.780000000
H     5.489000000    -6.377000000     2.399000000
C     5.044000000    -4.864000000     3.791000000
H     6.085000000    -4.649000000     4.020000000
C     4.072000000    -4.003000000     4.194000000
O     4.451000000    -2.871000000     4.965000000
C     4.579000000    -1.590000000     4.402000000
C     4.464000000    -0.601000000     5.304000000
H     4.463000000    -0.772000000     6.377000000
C     4.370000000     0.752000000     4.973000000
O     4.146000000     1.765000000     5.898000000
C     3.248000000     2.724000000     5.774000000
C     3.580000000     3.990000000     6.263000000
H     4.543000000     4.028000000     6.765000000
C     2.581000000     4.938000000     6.453000000
H     2.745000000     5.777000000     7.123000000
C     1.286000000     4.615000000     5.924000000
H     0.502000000     5.362000000     6.022000000
C     1.014000000     3.396000000     5.251000000
C     1.994000000     2.421000000     5.302000000
H     1.750000000     1.439000000     4.906000000
C    -1.228000000    -1.511000000     1.284000000
H    -1.920000000    -2.271000000     1.639000000
C    -1.053000000    -1.203000000    -0.100000000
H    -1.537000000    -1.858000000    -0.820000000
C    -0.070000000    -0.244000000    -0.489000000
H     0.132000000     0.024000000    -1.543000000
C     0.598000000     0.416000000     0.516000000
H     1.196000000     1.277000000     0.230000000
C     0.471000000     0.042000000     1.853000000
H     1.131000000     0.452000000     2.613000000
C    -0.399000000    -0.929000000     2.231000000
C    -0.519000000    -1.236000000     3.641000000
O     0.321000000    -0.706000000     4.404000000
O    -1.533000000    -1.713000000     4.062000000
O    -5.195000000    -1.015000000     7.179000000
H    -5.526000000    -0.120000000     7.102000000
H    -4.277000000    -0.910000000     7.429000000
O    -1.734000000    -7.117000000     4.872000000
H    -2.261000000    -7.116000000     4.072000000
H    -1.410000000    -6.220000000     4.945000000
O     1.708000000    -2.107000000     6.510000000
H     1.207000000    -2.917000000     6.412000000
H     1.607000000    -1.659000000     5.670000000
O     0.077000000     0.067000000     6.981000000
H     0.615000000    -0.567000000     7.455000000
H     0.307000000    -0.063000000     6.061000000
O    -2.602000000     0.659000000     5.442000000
H    -1.821000000     0.109000000     5.377000000
H    -2.348000000     1.367000000     6.035000000
O     4.415000000    -4.281000000     7.393000000
H     4.986000000    -3.998000000     6.680000000
H     3.548000000    -3.956000000     7.150000000
O    -6.789000000    -2.141000000     4.640000000
H    -6.390000000    -2.863000000     4.154000000
H    -6.130000000    -1.896000000     5.289000000
O    -0.058000000     1.874000000     8.725000000
H    -0.875000000     2.355000000     8.589000000
H    -0.059000000     1.204000000     8.042000000
O    -3.747000000    -6.544000000     2.707000000
H    -4.049000000    -6.928000000     1.884000000
H    -4.494000000    -6.628000000     3.299000000
O    -4.103000000    -1.650000000     3.601000000
H    -3.147000000    -1.691000000     3.634000000
H    -4.301000000    -0.717000000     3.527000000
O    -4.717000000    -4.309000000     4.160000000
H    -4.365000000    -3.430000000     4.017000000
H    -4.197000000    -4.871000000     3.586000000
O     2.629000000    -0.508000000     8.709000000
H     2.228000000    -1.023000000     8.009000000
H     2.707000000    -1.119000000     9.442000000
O    -2.800000000     3.156000000     7.588000000
H    -3.562000000     2.813000000     7.121000000
H    -3.143000000     3.432000000     8.438000000
O    -2.495000000    -2.264000000     7.100000000
H    -2.175000000    -3.005000000     6.585000000
H    -2.509000000    -1.532000000     6.482000000
O     1.280000000    -5.005000000     6.628000000
H     1.979000000    -5.536000000     6.247000000
H     1.029000000    -5.473000000     7.424000000
O    -1.255000000    -4.125000000     5.543000000
H    -0.358000000    -4.410000000     5.718000000
H    -1.177000000    -3.531000000     4.796000000
O    -4.438000000    -3.848000000     7.950000000
H    -3.741000000    -4.345000000     8.379000000
H    -3.982000000    -3.139000000     7.496000000
O    -1.762000000    -1.779000000     9.889000000
H    -1.987000000    -1.921000000     8.970000000
H    -0.856000000    -2.078000000     9.963000000
O    -4.758000000     1.266000000     3.881000000
H    -4.719000000     2.220000000     3.803000000
H    -3.893000000     1.017000000     4.205000000
