215
-1439.71907
C    -4.608000000    -1.998000000    -2.277000000
H    -3.930000000    -2.725000000    -2.716000000
C    -4.430000000    -0.621000000    -2.465000000
C    -5.362000000     0.225000000    -1.911000000
H    -5.391000000     1.299000000    -2.077000000
C    -3.167000000    -0.118000000    -3.158000000
O    -2.718000000    -0.938000000    -4.235000000
H    -2.321000000    -0.107000000    -2.455000000
O    -3.316000000     1.222000000    -3.670000000
C    -2.369000000     2.232000000    -3.568000000
C    -2.441000000     3.030000000    -2.433000000
H    -3.244000000     2.924000000    -1.708000000
C    -1.380000000     3.881000000    -2.165000000
O    -1.423000000     4.487000000    -1.011000000
C    -0.211000000     3.876000000    -2.882000000
C     0.933000000     4.864000000    -2.541000000
H     1.520000000     5.125000000    -3.425000000
C     1.875000000     4.207000000    -1.532000000
C     3.116000000     3.702000000    -1.960000000
H     3.342000000     3.675000000    -3.023000000
H     0.624000000     5.875000000    -2.269000000
C    -0.120000000     3.011000000    -3.981000000
H     0.831000000     3.038000000    -4.507000000
C    -1.251000000     2.246000000    -4.398000000
C    -1.018000000     1.236000000    -5.512000000
H    -0.253000000     1.528000000    -6.235000000
H    -1.901000000     1.096000000    -6.139000000
C    -0.545000000    -0.101000000    -5.018000000
C     0.812000000    -0.252000000    -4.955000000
H     1.495000000     0.530000000    -5.280000000
C    -1.408000000    -1.119000000    -4.491000000
C    -0.875000000    -2.205000000    -3.817000000
H    -1.574000000    -2.963000000    -3.474000000
C     0.473000000    -2.400000000    -3.853000000
O     1.002000000    -3.381000000    -3.073000000
C     1.644000000    -3.146000000    -1.796000000
C     1.267000000    -4.099000000    -0.639000000
C     2.088000000    -4.184000000     0.511000000
H     2.998000000    -3.608000000     0.655000000
C    -0.050000000    -4.506000000    -0.636000000
H    -0.663000000    -4.220000000    -1.487000000
O     3.057000000    -3.101000000    -1.868000000
H     1.221000000    -2.179000000    -1.486000000
C     1.327000000    -1.459000000    -4.428000000
C     2.833000000    -1.609000000    -4.327000000
H     3.279000000    -1.040000000    -5.145000000
H     3.115000000    -2.634000000    -4.577000000
C     3.555000000    -1.075000000    -3.030000000
C     4.035000000     0.158000000    -2.912000000
H     3.839000000     0.843000000    -3.733000000
C     3.706000000    -1.912000000    -1.937000000
C     4.239000000    -1.406000000    -0.785000000
H     4.322000000    -2.043000000     0.091000000
C     4.715000000    -0.108000000    -0.757000000
O     5.214000000     0.226000000     0.480000000
C     4.292000000     1.021000000     1.285000000
C     4.401000000     0.623000000     2.755000000
C     4.875000000    -0.672000000     3.049000000
H     5.383000000    -1.343000000     2.360000000
C     3.844000000     1.345000000     3.784000000
H     3.420000000     2.331000000     3.610000000
O     4.539000000     2.407000000     1.119000000
H     3.284000000     0.893000000     0.863000000
C     4.607000000     0.723000000    -1.827000000
C     5.043000000     2.171000000    -1.718000000
H     5.328000000     2.620000000    -2.672000000
H     5.956000000     2.223000000    -1.121000000
C     3.995000000     3.063000000    -1.088000000
C     3.753000000     3.118000000     0.267000000
C     2.489000000     3.522000000     0.712000000
H     2.263000000     3.577000000     1.774000000
C     1.540000000     4.072000000    -0.163000000
O     0.396000000     4.562000000     0.406000000
C    -0.731000000     3.819000000     0.053000000
H    -0.295000000     2.903000000    -0.372000000
C    -1.670000000     3.499000000     1.254000000
C    -3.003000000     3.759000000     1.234000000
H    -3.492000000     4.189000000     0.364000000
C    -1.089000000     3.048000000     2.432000000
H    -0.013000000     2.939000000     2.534000000
C    -1.897000000     2.842000000     3.563000000
O    -1.331000000     2.505000000     4.799000000
C    -3.277000000     2.985000000     3.498000000
H    -3.843000000     2.788000000     4.405000000
C    -3.868000000     3.511000000     2.341000000
O    -5.250000000     3.708000000     2.290000000
C    -6.100000000     3.429000000     1.208000000
C    -6.315000000     2.107000000     0.834000000
H    -5.729000000     1.355000000     1.355000000
C    -6.822000000     4.461000000     0.585000000
H    -6.667000000     5.477000000     0.941000000
C    -7.687000000     4.167000000    -0.405000000
H    -8.135000000     4.969000000    -0.986000000
C    -7.864000000     2.829000000    -0.880000000
H    -8.315000000     2.627000000    -1.848000000
C    -7.130000000     1.824000000    -0.254000000
O    -7.373000000     0.542000000    -0.545000000
C    -6.464000000    -0.318000000    -1.178000000
C    -6.616000000    -1.632000000    -0.953000000
H    -7.414000000    -2.035000000    -0.334000000
C    -5.645000000    -2.499000000    -1.437000000
O    -5.780000000    -3.841000000    -1.203000000
C    -4.741000000    -4.713000000    -1.316000000
C    -3.793000000    -4.865000000    -0.327000000
H    -3.984000000    -4.245000000     0.545000000
C    -4.643000000    -5.463000000    -2.495000000
H    -5.436000000    -5.508000000    -3.237000000
C    -3.510000000    -6.256000000    -2.687000000
H    -3.392000000    -6.805000000    -3.618000000
C    -2.527000000    -6.273000000    -1.720000000
H    -1.656000000    -6.909000000    -1.853000000
C    -2.667000000    -5.610000000    -0.524000000
O    -1.764000000    -5.768000000     0.492000000
C    -0.552000000    -5.209000000     0.456000000
C     0.357000000    -5.532000000     1.444000000
H    -0.012000000    -6.041000000     2.331000000
C     1.655000000    -4.988000000     1.528000000
O     2.378000000    -5.218000000     2.652000000
C     3.722000000    -4.995000000     2.916000000
C     4.007000000    -3.714000000     3.419000000
H     3.283000000    -2.905000000     3.474000000
C     4.726000000    -6.029000000     2.902000000
H     4.508000000    -6.979000000     2.421000000
C     6.054000000    -5.645000000     3.321000000
H     6.921000000    -6.300000000     3.355000000
C     6.250000000    -4.437000000     3.938000000
H     7.232000000    -4.200000000     4.339000000
C     5.258000000    -3.461000000     3.890000000
O     5.512000000    -2.279000000     4.603000000
C     4.839000000    -1.160000000     4.382000000
C     4.297000000    -0.439000000     5.456000000
H     4.328000000    -0.829000000     6.470000000
C     3.827000000     0.869000000     5.145000000
O     3.283000000     1.625000000     6.148000000
C     2.109000000     2.369000000     6.103000000
C     2.117000000     3.563000000     6.822000000
H     2.974000000     3.849000000     7.426000000
C     1.066000000     4.498000000     6.716000000
H     1.104000000     5.448000000     7.244000000
C    -0.083000000     4.127000000     5.965000000
H    -0.991000000     4.723000000     5.934000000
C    -0.140000000     2.920000000     5.267000000
C     0.998000000     2.074000000     5.319000000
H     0.964000000     1.155000000     4.739000000
C    -1.551000000    -1.730000000     1.019000000
H    -2.321000000    -2.473000000     1.208000000
C    -1.271000000    -1.527000000    -0.327000000
H    -1.818000000    -2.088000000    -1.081000000
C    -0.279000000    -0.560000000    -0.667000000
H    -0.112000000    -0.363000000    -1.730000000
C     0.387000000     0.146000000     0.315000000
H     1.195000000     0.819000000     0.039000000
C     0.076000000    -0.082000000     1.685000000
H     0.688000000     0.332000000     2.482000000
C    -0.893000000    -1.035000000     2.051000000
C    -1.253000000    -1.380000000     3.482000000
O    -0.657000000    -0.944000000     4.442000000
O    -2.099000000    -2.249000000     3.635000000
O    -4.753000000    -0.718000000     7.585000000
H    -4.757000000     0.027000000     8.186000000
H    -4.076000000    -0.505000000     6.943000000
O    -4.616000000    -6.914000000     3.479000000
H    -5.371000000    -6.333000000     3.382000000
H    -3.872000000    -6.323000000     3.588000000
O    -1.434000000    -5.521000000     9.103000000
H    -1.581000000    -6.295000000     9.647000000
H    -1.312000000    -5.869000000     8.220000000
O     1.165000000    -2.593000000     6.302000000
H     0.732000000    -2.028000000     5.662000000
H     0.447000000    -3.027000000     6.763000000
O    -0.555000000    -0.047000000     6.805000000
H    -0.190000000    -0.776000000     7.306000000
H    -0.632000000    -0.384000000     5.913000000
O     2.004000000    -7.610000000     4.185000000
H     1.943000000    -8.135000000     4.983000000
H     1.503000000    -6.818000000     4.381000000
O    -2.970000000    -0.118000000     5.502000000
H    -2.669000000    -1.003000000     5.295000000
H    -2.177000000     0.350000000     5.765000000
O     2.928000000    -2.695000000     8.267000000
H     2.466000000    -2.753000000     7.431000000
H     2.661000000    -1.851000000     8.630000000
O    -1.386000000     1.062000000     9.138000000
H    -1.154000000     0.776000000     8.255000000
H    -1.262000000     0.285000000     9.683000000
O    -4.715000000    -2.170000000     3.156000000
H    -3.773000000    -2.207000000     3.320000000
H    -4.948000000    -1.254000000     3.306000000
O    -8.132000000    -0.255000000     3.444000000
H    -8.355000000    -0.203000000     4.373000000
H    -7.257000000     0.129000000     3.387000000
O    -7.093000000    -3.727000000     4.243000000
H    -6.208000000    -3.408000000     4.067000000
H    -7.243000000    -4.398000000     3.578000000
O     0.370000000    -4.901000000     4.695000000
H     0.603000000    -4.204000000     5.308000000
H     0.583000000    -4.544000000     3.833000000
O    -2.838000000    -5.671000000     5.839000000
H    -2.508000000    -6.003000000     5.003000000
H    -2.660000000    -6.375000000     6.462000000
O    -0.462000000    -3.087000000     9.949000000
H    -0.848000000    -3.825000000     9.478000000
H    -0.293000000    -3.425000000    10.828000000
O    -3.513000000    -2.746000000     8.941000000
H    -2.790000000    -2.906000000     8.334000000
H    -4.004000000    -2.027000000     8.544000000
O    -1.777000000    -3.223000000     6.131000000
H    -1.966000000    -2.807000000     5.290000000
H    -1.950000000    -4.153000000     5.982000000
O    -2.883000000    -4.736000000     2.949000000
H    -2.366000000    -4.701000000     2.144000000
H    -2.821000000    -3.852000000     3.312000000
O    -5.442000000     0.619000000     3.652000000
H    -5.730000000     1.464000000     3.996000000
H    -4.525000000     0.552000000     3.919000000
