215
-1432.73232
C    -4.167000000    -1.695000000    -2.709000000
H    -3.460000000    -2.508000000    -2.853000000
C    -3.947000000    -0.364000000    -3.093000000
C    -4.897000000     0.613000000    -2.702000000
H    -4.760000000     1.662000000    -2.951000000
C    -2.660000000    -0.027000000    -3.795000000
O    -2.138000000    -1.081000000    -4.708000000
H    -2.014000000     0.020000000    -2.906000000
O    -2.768000000     1.207000000    -4.462000000
C    -1.807000000     2.036000000    -3.991000000
C    -2.069000000     2.791000000    -2.872000000
H    -3.023000000     2.746000000    -2.354000000
C    -1.140000000     3.675000000    -2.416000000
O    -1.517000000     4.328000000    -1.273000000
C     0.139000000     3.801000000    -3.024000000
C     1.156000000     4.747000000    -2.495000000
H     1.846000000     5.111000000    -3.259000000
C     1.935000000     4.062000000    -1.299000000
C     3.132000000     3.464000000    -1.545000000
H     3.492000000     3.501000000    -2.570000000
H     0.699000000     5.696000000    -2.206000000
C     0.497000000     2.921000000    -4.023000000
H     1.436000000     3.049000000    -4.555000000
C    -0.493000000     2.087000000    -4.538000000
C    -0.179000000     1.117000000    -5.621000000
H     0.591000000     1.548000000    -6.266000000
H    -1.015000000     1.081000000    -6.323000000
C     0.257000000    -0.164000000    -5.037000000
C     1.607000000    -0.485000000    -4.925000000
H     2.374000000     0.259000000    -5.127000000
C    -0.720000000    -1.195000000    -4.714000000
C    -0.188000000    -2.327000000    -4.071000000
H    -0.873000000    -3.093000000    -3.718000000
C     1.178000000    -2.590000000    -3.885000000
O     1.570000000    -3.631000000    -3.119000000
C     2.017000000    -3.340000000    -1.815000000
C     1.379000000    -4.095000000    -0.552000000
C     2.217000000    -4.667000000     0.367000000
H     3.294000000    -4.692000000     0.221000000
C     0.057000000    -3.941000000    -0.253000000
H    -0.605000000    -3.383000000    -0.911000000
O     3.415000000    -3.340000000    -1.799000000
H     1.781000000    -2.286000000    -1.606000000
C     2.065000000    -1.646000000    -4.334000000
C     3.564000000    -1.840000000    -4.061000000
H     4.140000000    -1.333000000    -4.838000000
H     3.872000000    -2.881000000    -4.182000000
C     3.947000000    -1.226000000    -2.703000000
C     4.374000000     0.132000000    -2.507000000
H     4.417000000     0.800000000    -3.364000000
C     4.053000000    -2.140000000    -1.651000000
C     4.543000000    -1.694000000    -0.424000000
H     4.519000000    -2.435000000     0.371000000
C     4.787000000    -0.372000000    -0.164000000
O     5.029000000     0.014000000     1.127000000
C     3.923000000     0.692000000     1.846000000
C     3.789000000     0.227000000     3.307000000
C     4.287000000    -1.030000000     3.654000000
H     4.833000000    -1.672000000     2.967000000
C     3.144000000     1.017000000     4.202000000
H     2.761000000     1.967000000     3.839000000
O     4.059000000     2.138000000     1.704000000
H     3.072000000     0.419000000     1.205000000
C     4.777000000     0.558000000    -1.264000000
C     5.142000000     2.037000000    -1.122000000
H     5.529000000     2.378000000    -2.084000000
H     5.951000000     2.207000000    -0.408000000
C     3.902000000     2.825000000    -0.588000000
C     3.404000000     2.780000000     0.680000000
C     2.238000000     3.500000000     0.995000000
H     1.848000000     3.299000000     1.990000000
C     1.509000000     4.093000000     0.026000000
O     0.160000000     4.540000000     0.423000000
C    -0.928000000     3.745000000    -0.102000000
H    -0.590000000     2.718000000    -0.307000000
C    -1.935000000     3.610000000     1.028000000
C    -3.284000000     3.899000000     0.865000000
H    -3.658000000     4.410000000    -0.018000000
C    -1.558000000     2.957000000     2.213000000
H    -0.527000000     2.628000000     2.318000000
C    -2.444000000     2.739000000     3.239000000
O    -1.996000000     2.214000000     4.400000000
C    -3.749000000     3.060000000     3.117000000
H    -4.494000000     2.896000000     3.891000000
C    -4.197000000     3.611000000     1.940000000
O    -5.492000000     3.956000000     1.767000000
C    -6.223000000     3.740000000     0.644000000
C    -6.251000000     2.503000000    -0.046000000
H    -5.647000000     1.686000000     0.340000000
C    -7.131000000     4.768000000     0.235000000
H    -7.312000000     5.626000000     0.877000000
C    -7.891000000     4.679000000    -0.944000000
H    -8.495000000     5.495000000    -1.331000000
C    -7.797000000     3.403000000    -1.622000000
H    -8.319000000     3.277000000    -2.567000000
C    -7.035000000     2.326000000    -1.150000000
O    -7.116000000     1.127000000    -1.867000000
C    -6.119000000     0.206000000    -2.096000000
C    -6.378000000    -1.132000000    -1.797000000
H    -7.378000000    -1.490000000    -1.568000000
C    -5.382000000    -2.057000000    -2.022000000
O    -5.628000000    -3.425000000    -1.745000000
C    -4.557000000    -4.252000000    -1.399000000
C    -3.641000000    -3.819000000    -0.380000000
H    -3.549000000    -2.792000000    -0.038000000
C    -4.589000000    -5.578000000    -1.807000000
H    -5.300000000    -5.882000000    -2.572000000
C    -3.586000000    -6.414000000    -1.354000000
H    -3.483000000    -7.361000000    -1.878000000
C    -2.718000000    -6.019000000    -0.309000000
H    -1.940000000    -6.720000000    -0.019000000
C    -2.753000000    -4.711000000     0.205000000
O    -1.881000000    -4.393000000     1.145000000
C    -0.477000000    -4.448000000     0.957000000
C     0.396000000    -5.087000000     1.848000000
H     0.026000000    -5.681000000     2.680000000
C     1.725000000    -5.217000000     1.519000000
O     2.596000000    -5.817000000     2.382000000
C     3.701000000    -5.221000000     2.890000000
C     3.522000000    -4.161000000     3.799000000
H     2.555000000    -3.709000000     4.007000000
C     4.976000000    -5.773000000     2.645000000
H     5.012000000    -6.748000000     2.165000000
C     6.091000000    -5.276000000     3.327000000
H     7.082000000    -5.691000000     3.163000000
C     5.909000000    -4.246000000     4.267000000
H     6.784000000    -3.884000000     4.802000000
C     4.653000000    -3.649000000     4.460000000
O     4.549000000    -2.671000000     5.374000000
C     4.017000000    -1.496000000     4.938000000
C     3.369000000    -0.671000000     5.888000000
H     3.270000000    -1.006000000     6.917000000
C     2.917000000     0.554000000     5.492000000
O     2.124000000     1.235000000     6.396000000
C     1.216000000     2.188000000     6.108000000
C     1.420000000     3.550000000     6.419000000
H     2.383000000     3.818000000     6.847000000
C     0.454000000     4.491000000     5.989000000
H     0.611000000     5.530000000     6.267000000
C    -0.725000000     4.024000000     5.368000000
H    -1.500000000     4.745000000     5.122000000
C    -0.869000000     2.647000000     5.005000000
C     0.078000000     1.731000000     5.423000000
H    -0.221000000     0.689000000     5.343000000
C    -1.439000000    -0.446000000     2.060000000
H    -2.423000000    -0.271000000     2.489000000
C    -1.174000000     0.045000000     0.800000000
H    -1.930000000     0.605000000     0.254000000
C     0.105000000    -0.154000000     0.212000000
H     0.362000000     0.116000000    -0.781000000
C     1.006000000    -0.965000000     0.931000000
H     1.991000000    -1.222000000     0.549000000
C     0.771000000    -1.423000000     2.193000000
H     1.616000000    -1.929000000     2.653000000
C    -0.472000000    -1.117000000     2.822000000
C    -0.665000000    -1.678000000     4.190000000
O     0.099000000    -2.426000000     4.688000000
O    -1.698000000    -1.336000000     4.787000000
O    -5.784000000    -1.366000000     7.118000000
H    -6.091000000    -0.947000000     7.922000000
H    -5.590000000    -0.639000000     6.527000000
O     0.515000000    -4.884000000     5.863000000
H     0.277000000    -4.050000000     5.459000000
H     1.122000000    -4.646000000     6.564000000
O    -0.001000000    -1.795000000     7.713000000
H    -0.715000000    -1.170000000     7.835000000
H     0.125000000    -1.833000000     6.765000000
O    -2.320000000     0.231000000     7.523000000
H    -2.865000000     1.010000000     7.632000000
H    -2.086000000     0.229000000     6.595000000
O     2.928000000    -4.271000000     7.405000000
H     3.521000000    -3.593000000     7.082000000
H     3.387000000    -5.093000000     7.233000000
O    -0.911000000     0.809000000    10.249000000
H    -0.094000000     0.380000000     9.995000000
H    -1.463000000     0.753000000     9.469000000
O    -3.665000000    -2.994000000     4.334000000
H    -4.267000000    -2.418000000     3.864000000
H    -2.866000000    -2.477000000     4.433000000
O    -6.815000000    -1.050000000     2.911000000
H    -5.960000000    -1.020000000     3.340000000
H    -6.677000000    -0.612000000     2.071000000
O     0.452000000    -7.397000000     6.741000000
H     0.678000000    -6.579000000     6.299000000
H    -0.505000000    -7.403000000     6.760000000
O    -5.464000000     1.150000000     6.148000000
H    -6.189000000     1.740000000     5.944000000
H    -4.809000000     1.711000000     6.565000000
O    -2.073000000    -6.748000000     6.656000000
H    -2.069000000    -5.792000000     6.605000000
H    -2.998000000    -6.979000000     6.744000000
O     2.016000000    -3.898000000     9.835000000
H     2.226000000    -3.609000000     8.947000000
H     1.189000000    -3.461000000    10.040000000
O    -2.030000000    -5.492000000     9.784000000
H    -1.742000000    -5.116000000     8.952000000
H    -1.253000000    -5.462000000    10.342000000
O    -5.251000000    -4.114000000     7.161000000
H    -4.669000000    -4.107000000     6.402000000
H    -5.508000000    -3.199000000     7.274000000
O    -1.905000000    -3.369000000     6.825000000
H    -1.092000000    -3.072000000     7.235000000
H    -1.954000000    -2.877000000     6.006000000
O    -3.816000000    -5.447000000     3.349000000
H    -3.118000000    -5.211000000     2.737000000
H    -3.913000000    -4.678000000     3.910000000
O    -3.387000000    -2.192000000     8.952000000
H    -3.903000000    -1.543000000     8.474000000
H    -2.761000000    -2.523000000     8.307000000
O    -4.356000000     0.027000000     4.101000000
H    -4.727000000     0.540000000     4.819000000
H    -3.497000000    -0.248000000     4.421000000
O     1.659000000     0.312000000     9.611000000
H     1.812000000     0.679000000     8.740000000
H     2.533000000     0.225000000     9.991000000
