215
-1480.27146
C    -4.407000000    -1.757000000    -2.189000000
H    -3.686000000    -2.528000000    -2.445000000
C    -4.206000000    -0.395000000    -2.403000000
C    -5.033000000     0.537000000    -1.843000000
H    -4.857000000     1.604000000    -1.958000000
C    -2.945000000     0.072000000    -3.143000000
O    -2.493000000    -0.859000000    -4.124000000
H    -2.127000000     0.192000000    -2.417000000
O    -3.135000000     1.323000000    -3.882000000
C    -2.039000000     2.163000000    -3.800000000
C    -2.083000000     3.091000000    -2.830000000
H    -3.026000000     3.272000000    -2.321000000
C    -0.957000000     3.919000000    -2.649000000
O    -1.094000000     4.796000000    -1.580000000
C     0.241000000     3.751000000    -3.269000000
C     1.457000000     4.552000000    -2.940000000
H     1.973000000     4.813000000    -3.867000000
C     2.307000000     3.898000000    -1.863000000
C     3.433000000     3.107000000    -2.179000000
H     3.644000000     2.849000000    -3.214000000
H     1.256000000     5.584000000    -2.646000000
C     0.244000000     2.781000000    -4.305000000
H     1.190000000     2.729000000    -4.839000000
C    -0.896000000     1.997000000    -4.567000000
C    -0.746000000     0.843000000    -5.517000000
H     0.042000000     1.208000000    -6.179000000
H    -1.577000000     0.683000000    -6.209000000
C    -0.279000000    -0.431000000    -4.869000000
C     1.047000000    -0.870000000    -4.938000000
H     1.798000000    -0.303000000    -5.482000000
C    -1.182000000    -1.202000000    -4.176000000
C    -0.773000000    -2.279000000    -3.443000000
H    -1.439000000    -2.834000000    -2.788000000
C     0.548000000    -2.744000000    -3.442000000
O     0.828000000    -3.836000000    -2.610000000
C     1.400000000    -3.521000000    -1.326000000
C     0.922000000    -4.448000000    -0.197000000
C     1.845000000    -4.898000000     0.786000000
H     2.886000000    -4.678000000     0.564000000
C    -0.422000000    -4.728000000    -0.105000000
H    -1.050000000    -4.281000000    -0.872000000
O     2.848000000    -3.681000000    -1.557000000
H     1.223000000    -2.489000000    -0.988000000
C     1.448000000    -2.001000000    -4.184000000
C     2.969000000    -2.292000000    -4.136000000
H     3.500000000    -1.885000000    -4.999000000
H     3.051000000    -3.378000000    -4.223000000
C     3.648000000    -1.836000000    -2.791000000
C     4.091000000    -0.526000000    -2.758000000
H     3.938000000     0.122000000    -3.617000000
C     3.593000000    -2.568000000    -1.616000000
C     4.179000000    -2.021000000    -0.444000000
H     4.109000000    -2.402000000     0.572000000
C     4.655000000    -0.734000000    -0.459000000
O     5.019000000    -0.171000000     0.702000000
C     3.952000000     0.610000000     1.319000000
C     3.653000000     0.125000000     2.678000000
C     4.099000000    -1.075000000     3.210000000
H     4.843000000    -1.618000000     2.633000000
C     2.756000000     0.932000000     3.403000000
H     2.415000000     1.914000000     3.084000000
O     4.285000000     1.952000000     1.207000000
H     3.052000000     0.436000000     0.710000000
C     4.744000000    -0.012000000    -1.637000000
C     5.264000000     1.435000000    -1.673000000
H     5.616000000     1.779000000    -2.648000000
H     6.026000000     1.441000000    -0.892000000
C     4.175000000     2.428000000    -1.189000000
C     3.735000000     2.614000000     0.121000000
C     2.601000000     3.366000000     0.413000000
H     2.274000000     3.474000000     1.444000000
C     1.887000000     4.030000000    -0.587000000
O     0.813000000     4.832000000    -0.257000000
C    -0.492000000     4.316000000    -0.374000000
H    -0.511000000     3.217000000    -0.371000000
C    -1.295000000     4.647000000     0.895000000
C    -2.658000000     4.389000000     0.924000000
H    -3.205000000     4.010000000     0.064000000
C    -0.757000000     5.142000000     2.036000000
H     0.315000000     5.319000000     2.075000000
C    -1.468000000     5.359000000     3.222000000
O    -0.828000000     5.621000000     4.414000000
C    -2.837000000     5.123000000     3.237000000
H    -3.431000000     5.195000000     4.144000000
C    -3.439000000     4.647000000     2.081000000
O    -4.769000000     4.250000000     2.204000000
C    -5.584000000     3.937000000     1.110000000
C    -5.968000000     2.677000000     0.891000000
H    -5.680000000     1.936000000     1.632000000
C    -5.943000000     4.998000000     0.176000000
H    -5.557000000     6.003000000     0.325000000
C    -6.593000000     4.676000000    -1.023000000
H    -6.807000000     5.459000000    -1.746000000
C    -6.909000000     3.312000000    -1.254000000
H    -7.328000000     2.968000000    -2.196000000
C    -6.621000000     2.334000000    -0.293000000
O    -6.950000000     1.034000000    -0.508000000
C    -6.086000000     0.104000000    -1.037000000
C    -6.401000000    -1.243000000    -0.925000000
H    -7.217000000    -1.538000000    -0.270000000
C    -5.580000000    -2.180000000    -1.512000000
O    -5.810000000    -3.520000000    -1.342000000
C    -4.887000000    -4.484000000    -1.295000000
C    -4.028000000    -4.569000000    -0.196000000
H    -4.163000000    -3.830000000     0.590000000
C    -4.875000000    -5.453000000    -2.302000000
H    -5.455000000    -5.257000000    -3.200000000
C    -4.115000000    -6.590000000    -1.997000000
H    -4.116000000    -7.435000000    -2.681000000
C    -3.265000000    -6.698000000    -0.904000000
H    -2.643000000    -7.572000000    -0.728000000
C    -3.209000000    -5.647000000    -0.005000000
O    -2.244000000    -5.680000000     1.020000000
C    -0.881000000    -5.502000000     0.939000000
C    -0.057000000    -5.845000000     1.984000000
H    -0.461000000    -6.439000000     2.801000000
C     1.336000000    -5.668000000     1.860000000
O     2.178000000    -6.188000000     2.791000000
C     3.288000000    -5.585000000     3.393000000
C     3.156000000    -4.308000000     3.881000000
H     2.231000000    -3.739000000     3.847000000
C     4.456000000    -6.368000000     3.549000000
H     4.472000000    -7.370000000     3.129000000
C     5.521000000    -5.864000000     4.282000000
H     6.376000000    -6.503000000     4.486000000
C     5.406000000    -4.521000000     4.750000000
H     6.183000000    -4.055000000     5.351000000
C     4.290000000    -3.780000000     4.453000000
O     4.157000000    -2.528000000     5.076000000
C     3.661000000    -1.432000000     4.471000000
C     2.710000000    -0.696000000     5.225000000
H     2.364000000    -1.081000000     6.181000000
C     2.212000000     0.485000000     4.606000000
O     1.155000000     1.149000000     5.225000000
C     1.202000000     2.547000000     5.351000000
C     2.329000000     3.240000000     5.823000000
H     3.164000000     2.626000000     6.153000000
C     2.360000000     4.593000000     5.721000000
H     3.213000000     5.093000000     6.173000000
C     1.314000000     5.313000000     5.394000000
H     1.432000000     6.392000000     5.353000000
C     0.131000000     4.760000000     4.950000000
C     0.118000000     3.350000000     4.803000000
H    -0.737000000     2.914000000     4.295000000
C    -2.241000000    -0.018000000     1.499000000
H    -3.319000000     0.075000000     1.604000000
C    -1.671000000     0.520000000     0.295000000
H    -2.350000000     1.089000000    -0.335000000
C    -0.389000000     0.318000000    -0.172000000
H    -0.128000000     0.792000000    -1.130000000
C     0.373000000    -0.575000000     0.606000000
H     1.393000000    -0.769000000     0.284000000
C    -0.105000000    -1.039000000     1.823000000
H     0.546000000    -1.605000000     2.486000000
C    -1.440000000    -0.891000000     2.293000000
C    -1.953000000    -1.609000000     3.485000000
O    -1.267000000    -2.445000000     4.108000000
O    -3.119000000    -1.509000000     3.839000000
O    -6.758000000    -0.579000000     5.655000000
H    -6.499000000    -0.444000000     4.743000000
H    -6.361000000     0.153000000     6.127000000
O     0.267000000    -3.941000000     5.371000000
H    -0.206000000    -3.356000000     4.778000000
H     0.177000000    -3.533000000     6.232000000
O    -3.321000000    -2.860000000     6.249000000
H    -2.499000000    -3.003000000     6.719000000
H    -3.056000000    -2.727000000     5.339000000
O    -3.288000000     0.311000000     5.736000000
H    -3.816000000     0.910000000     5.208000000
H    -3.179000000    -0.462000000     5.183000000
O     1.962000000    -3.302000000     7.772000000
H     2.078000000    -4.183000000     7.417000000
H     2.449000000    -3.310000000     8.596000000
O    -1.079000000     1.141000000     7.157000000
H    -0.365000000     0.537000000     6.953000000
H    -1.826000000     0.804000000     6.663000000
O    -4.865000000    -3.453000000     3.335000000
H    -5.360000000    -3.487000000     4.154000000
H    -4.314000000    -2.675000000     3.420000000
O    -7.932000000    -1.564000000     2.632000000
H    -7.806000000    -2.454000000     2.962000000
H    -7.085000000    -1.139000000     2.761000000
O    -6.029000000    -5.715000000     1.781000000
H    -5.619000000    -4.894000000     2.052000000
H    -6.201000000    -6.179000000     2.600000000
O    -0.100000000    -6.434000000     6.169000000
H     0.029000000    -5.536000000     5.861000000
H    -1.035000000    -6.486000000     6.366000000
O    -4.674000000     2.321000000     4.082000000
H    -4.363000000     3.143000000     3.702000000
H    -5.617000000     2.448000000     4.186000000
O    -2.743000000    -6.489000000     6.178000000
H    -2.702000000    -5.819000000     5.496000000
H    -3.502000000    -7.023000000     5.944000000
O    -1.152000000    -2.988000000     7.852000000
H    -0.766000000    -2.157000000     8.131000000
H    -1.491000000    -3.377000000     8.658000000
O     0.812000000    -0.980000000     8.467000000
H     1.185000000    -1.832000000     8.240000000
H     1.573000000    -0.418000000     8.615000000
O    -5.921000000    -3.370000000     5.934000000
H    -4.988000000    -3.317000000     6.139000000
H    -6.280000000    -2.536000000     6.236000000
O    -4.570000000    -2.970000000     9.114000000
H    -4.318000000    -3.179000000     8.214000000
H    -4.370000000    -2.039000000     9.209000000
O    -2.475000000    -5.116000000     4.005000000
H    -1.946000000    -4.325000000     4.113000000
H    -3.040000000    -4.925000000     3.256000000
O    -3.928000000     0.226000000     8.487000000
H    -4.645000000     0.836000000     8.312000000
H    -3.642000000    -0.063000000     7.621000000
O    -5.521000000    -0.252000000     3.440000000
H    -5.188000000     0.637000000     3.316000000
H    -4.741000000    -0.778000000     3.614000000
