215
-1467.79591
C    -4.150000000    -2.268000000    -1.981000000
H    -3.462000000    -3.023000000    -2.350000000
C    -3.865000000    -0.844000000    -2.156000000
C    -4.700000000     0.100000000    -1.573000000
H    -4.593000000     1.174000000    -1.695000000
C    -2.678000000    -0.319000000    -3.066000000
O    -2.280000000    -1.285000000    -4.046000000
H    -1.833000000    -0.227000000    -2.367000000
O    -2.943000000     0.940000000    -3.718000000
C    -1.992000000     1.930000000    -3.691000000
C    -2.110000000     2.998000000    -2.867000000
H    -3.024000000     3.095000000    -2.287000000
C    -1.037000000     3.860000000    -2.624000000
O    -1.076000000     4.658000000    -1.557000000
C     0.215000000     3.745000000    -3.274000000
C     1.478000000     4.589000000    -3.044000000
H     2.099000000     4.611000000    -3.942000000
C     2.292000000     4.050000000    -1.909000000
C     3.345000000     3.197000000    -2.107000000
H     3.773000000     2.978000000    -3.082000000
H     1.230000000     5.619000000    -2.779000000
C     0.284000000     2.735000000    -4.235000000
H     1.265000000     2.550000000    -4.668000000
C    -0.744000000     1.831000000    -4.399000000
C    -0.550000000     0.702000000    -5.408000000
H     0.157000000     1.006000000    -6.183000000
H    -1.548000000     0.525000000    -5.816000000
C    -0.029000000    -0.558000000    -4.697000000
C     1.320000000    -0.770000000    -4.537000000
H     2.008000000     0.030000000    -4.798000000
C    -0.914000000    -1.503000000    -4.156000000
C    -0.470000000    -2.642000000    -3.553000000
H    -1.212000000    -3.348000000    -3.189000000
C     0.859000000    -2.857000000    -3.415000000
O     1.272000000    -3.923000000    -2.655000000
C     1.618000000    -3.693000000    -1.243000000
C     0.925000000    -4.613000000    -0.208000000
C     1.356000000    -4.724000000     1.089000000
H     2.199000000    -4.064000000     1.275000000
C    -0.263000000    -5.342000000    -0.521000000
H    -0.742000000    -5.192000000    -1.485000000
O     3.074000000    -3.685000000    -1.171000000
H     1.233000000    -2.687000000    -1.021000000
C     1.781000000    -1.948000000    -3.982000000
C     3.321000000    -2.192000000    -3.731000000
H     3.888000000    -1.842000000    -4.596000000
H     3.466000000    -3.272000000    -3.654000000
C     3.846000000    -1.728000000    -2.442000000
C     4.391000000    -0.436000000    -2.499000000
H     4.555000000     0.100000000    -3.431000000
C     3.761000000    -2.496000000    -1.261000000
C     4.218000000    -1.950000000    -0.133000000
H     4.207000000    -2.378000000     0.866000000
C     4.714000000    -0.628000000    -0.170000000
O     4.885000000    -0.056000000     1.117000000
C     3.761000000     0.796000000     1.499000000
C     3.449000000     0.514000000     2.935000000
C     3.900000000    -0.636000000     3.599000000
H     4.494000000    -1.397000000     3.101000000
C     2.595000000     1.345000000     3.616000000
H     2.230000000     2.216000000     3.078000000
O     4.070000000     2.203000000     1.272000000
H     2.879000000     0.509000000     0.907000000
C     4.700000000     0.147000000    -1.322000000
C     5.147000000     1.623000000    -1.252000000
H     5.672000000     1.825000000    -2.188000000
H     5.905000000     1.710000000    -0.471000000
C     4.014000000     2.624000000    -0.998000000
C     3.487000000     2.888000000     0.261000000
C     2.521000000     3.817000000     0.527000000
H     2.125000000     3.878000000     1.538000000
C     1.886000000     4.363000000    -0.581000000
O     0.799000000     5.057000000    -0.269000000
C    -0.435000000     4.346000000    -0.300000000
H    -0.316000000     3.272000000    -0.094000000
C    -1.380000000     4.703000000     0.820000000
C    -2.762000000     4.520000000     0.696000000
H    -3.237000000     4.200000000    -0.228000000
C    -0.830000000     5.144000000     2.040000000
H     0.214000000     5.424000000     2.153000000
C    -1.614000000     5.363000000     3.205000000
O    -1.106000000     5.772000000     4.368000000
C    -2.979000000     5.057000000     3.058000000
H    -3.495000000     5.101000000     4.013000000
C    -3.556000000     4.750000000     1.829000000
O    -4.914000000     4.494000000     1.845000000
C    -5.582000000     3.909000000     0.805000000
C    -5.698000000     2.477000000     0.807000000
H    -5.299000000     1.842000000     1.594000000
C    -6.026000000     4.697000000    -0.218000000
H    -5.959000000     5.776000000    -0.107000000
C    -6.710000000     4.134000000    -1.274000000
H    -7.026000000     4.732000000    -2.125000000
C    -6.938000000     2.711000000    -1.266000000
H    -7.509000000     2.218000000    -2.049000000
C    -6.458000000     1.921000000    -0.252000000
O    -6.649000000     0.525000000    -0.215000000
C    -5.738000000    -0.362000000    -0.773000000
C    -6.011000000    -1.713000000    -0.587000000
H    -6.851000000    -2.070000000     0.004000000
C    -5.174000000    -2.664000000    -1.173000000
O    -5.476000000    -3.979000000    -1.049000000
C    -4.642000000    -4.977000000    -1.515000000
C    -3.611000000    -5.409000000    -0.652000000
H    -3.401000000    -4.945000000     0.308000000
C    -4.810000000    -5.591000000    -2.751000000
H    -5.640000000    -5.338000000    -3.406000000
C    -4.029000000    -6.684000000    -3.083000000
H    -4.206000000    -7.187000000    -4.031000000
C    -3.063000000    -7.210000000    -2.252000000
H    -2.569000000    -8.094000000    -2.646000000
C    -2.830000000    -6.562000000    -1.027000000
O    -1.930000000    -7.076000000    -0.028000000
C    -0.845000000    -6.252000000     0.391000000
C    -0.276000000    -6.421000000     1.679000000
H    -0.753000000    -7.112000000     2.369000000
C     0.816000000    -5.646000000     2.028000000
O     1.320000000    -5.687000000     3.309000000
C     2.523000000    -5.130000000     3.665000000
C     2.534000000    -3.879000000     4.384000000
H     1.573000000    -3.444000000     4.645000000
C     3.705000000    -5.860000000     3.444000000
H     3.671000000    -6.792000000     2.885000000
C     4.912000000    -5.154000000     3.762000000
H     5.844000000    -5.616000000     3.446000000
C     4.908000000    -4.026000000     4.573000000
H     5.856000000    -3.679000000     4.975000000
C     3.746000000    -3.349000000     4.817000000
O     3.785000000    -2.122000000     5.437000000
C     3.377000000    -0.981000000     4.840000000
C     2.543000000    -0.177000000     5.483000000
H     2.204000000    -0.340000000     6.503000000
C     2.158000000     1.028000000     4.849000000
O     1.325000000     1.840000000     5.481000000
C     1.333000000     3.236000000     5.380000000
C     2.474000000     4.076000000     5.530000000
H     3.433000000     3.575000000     5.638000000
C     2.406000000     5.436000000     5.447000000
H     3.343000000     5.948000000     5.651000000
C     1.226000000     6.008000000     5.089000000
H     1.128000000     7.084000000     4.971000000
C     0.082000000     5.226000000     4.842000000
C     0.104000000     3.855000000     5.023000000
H    -0.723000000     3.179000000     4.827000000
C    -1.463000000     0.274000000     0.951000000
H    -2.421000000     0.512000000     1.407000000
C    -1.110000000     0.999000000    -0.156000000
H    -1.799000000     1.749000000    -0.538000000
C     0.067000000     0.659000000    -0.822000000
H     0.340000000     1.198000000    -1.738000000
C     0.904000000    -0.334000000    -0.232000000
H     1.801000000    -0.665000000    -0.750000000
C     0.530000000    -0.949000000     1.006000000
H     1.245000000    -1.627000000     1.464000000
C    -0.650000000    -0.611000000     1.654000000
C    -1.173000000    -1.240000000     2.973000000
O    -0.478000000    -1.975000000     3.623000000
O    -2.267000000    -0.905000000     3.398000000
O    -0.459000000    -0.988000000     5.986000000
H    -0.468000000    -1.421000000     5.132000000
H    -0.377000000    -0.056000000     5.780000000
O    -3.163000000    -1.738000000     5.787000000
H    -2.336000000    -1.453000000     6.175000000
H    -3.030000000    -1.647000000     4.844000000
O    -2.581000000     1.375000000     4.747000000
H    -3.160000000     1.821000000     4.129000000
H    -2.433000000     0.513000000     4.358000000
O     1.880000000    -3.058000000     7.670000000
H     1.587000000    -2.611000000     6.876000000
H     2.276000000    -2.367000000     8.201000000
O    -3.155000000     1.405000000     7.882000000
H    -4.090000000     1.201000000     7.922000000
H    -2.870000000     1.056000000     7.037000000
O    -4.696000000    -3.071000000     2.818000000
H    -4.535000000    -2.165000000     2.555000000
H    -5.317000000    -3.003000000     3.544000000
O    -7.881000000    -1.566000000     2.391000000
H    -6.988000000    -1.306000000     2.618000000
H    -7.963000000    -2.459000000     2.725000000
O    -6.366000000    -4.984000000     2.047000000
H    -5.557000000    -4.480000000     2.139000000
H    -6.257000000    -5.724000000     2.644000000
O     1.271000000    -7.007000000     6.538000000
H     1.086000000    -7.945000000     6.584000000
H     0.622000000    -6.665000000     5.923000000
O    -4.761000000     2.608000000     3.897000000
H    -4.945000000     3.349000000     3.320000000
H    -4.965000000     2.931000000     4.775000000
O    -1.449000000    -6.353000000     5.159000000
H    -1.380000000    -5.592000000     4.583000000
H    -2.362000000    -6.354000000     5.447000000
O    -2.284000000    -2.966000000     9.318000000
H    -1.833000000    -3.602000000     8.762000000
H    -1.837000000    -2.138000000     9.145000000
O    -5.934000000     1.211000000     7.653000000
H    -6.697000000     1.460000000     7.132000000
H    -5.816000000     0.278000000     7.475000000
O    -0.746000000    -0.612000000     8.741000000
H    -0.683000000    -0.648000000     7.787000000
H     0.163000000    -0.614000000     9.041000000
O    -6.709000000    -2.949000000     4.808000000
H    -6.342000000    -3.392000000     5.573000000
H    -7.047000000    -2.121000000     5.150000000
O    -1.812000000    -4.596000000     7.278000000
H    -1.202000000    -4.721000000     6.551000000
H    -2.588000000    -4.208000000     6.875000000
O    -1.898000000    -4.229000000     3.754000000
H    -2.696000000    -3.705000000     3.680000000
H    -1.191000000    -3.586000000     3.797000000
O    -5.179000000    -1.429000000     7.609000000
H    -4.539000000    -1.554000000     6.909000000
H    -5.226000000    -2.280000000     8.045000000
O    -4.891000000    -0.256000000     2.886000000
H    -5.192000000     0.558000000     3.288000000
H    -3.968000000    -0.318000000     3.133000000
