215
-1476.59853
C    -4.184000000    -2.047000000    -2.391000000
H    -3.582000000    -2.856000000    -2.796000000
C    -3.791000000    -0.712000000    -2.597000000
C    -4.671000000     0.335000000    -2.081000000
H    -4.483000000     1.365000000    -2.370000000
C    -2.480000000    -0.345000000    -3.316000000
O    -2.111000000    -1.396000000    -4.210000000
H    -1.676000000    -0.211000000    -2.578000000
O    -2.744000000     0.797000000    -4.130000000
C    -1.693000000     1.711000000    -4.133000000
C    -1.825000000     2.785000000    -3.280000000
H    -2.783000000     3.037000000    -2.833000000
C    -0.741000000     3.558000000    -3.016000000
O    -0.943000000     4.502000000    -1.975000000
C     0.509000000     3.387000000    -3.651000000
C     1.688000000     4.317000000    -3.368000000
H     2.389000000     4.279000000    -4.205000000
C     2.402000000     3.783000000    -2.162000000
C     3.505000000     2.949000000    -2.314000000
H     3.828000000     2.750000000    -3.333000000
H     1.353000000     5.349000000    -3.246000000
C     0.596000000     2.343000000    -4.586000000
H     1.542000000     2.154000000    -5.087000000
C    -0.467000000     1.431000000    -4.750000000
C    -0.244000000     0.230000000    -5.668000000
H     0.513000000     0.547000000    -6.389000000
H    -1.163000000     0.124000000    -6.250000000
C     0.139000000    -0.993000000    -4.828000000
C     1.449000000    -1.375000000    -4.761000000
H     2.211000000    -0.826000000    -5.308000000
C    -0.847000000    -1.778000000    -4.200000000
C    -0.544000000    -2.857000000    -3.375000000
H    -1.320000000    -3.319000000    -2.771000000
C     0.787000000    -3.116000000    -3.203000000
O     1.187000000    -4.176000000    -2.377000000
C     1.551000000    -3.835000000    -1.030000000
C     0.883000000    -4.730000000    -0.016000000
C     1.459000000    -4.886000000     1.233000000
H     2.421000000    -4.401000000     1.378000000
C    -0.428000000    -5.232000000    -0.212000000
H    -0.962000000    -5.060000000    -1.143000000
O     2.987000000    -3.774000000    -0.941000000
H     1.041000000    -2.916000000    -0.704000000
C     1.841000000    -2.382000000    -3.843000000
C     3.311000000    -2.680000000    -3.619000000
H     3.833000000    -2.283000000    -4.492000000
H     3.432000000    -3.761000000    -3.516000000
C     3.792000000    -2.024000000    -2.379000000
C     4.416000000    -0.792000000    -2.491000000
H     4.315000000    -0.235000000    -3.418000000
C     3.694000000    -2.589000000    -1.108000000
C     4.236000000    -2.046000000     0.014000000
H     4.088000000    -2.498000000     0.992000000
C     4.783000000    -0.766000000    -0.082000000
O     4.854000000    -0.119000000     1.079000000
C     3.891000000     0.843000000     1.495000000
C     3.333000000     0.583000000     2.889000000
C     3.670000000    -0.589000000     3.610000000
H     4.397000000    -1.302000000     3.230000000
C     2.512000000     1.538000000     3.461000000
H     2.264000000     2.446000000     2.916000000
O     4.297000000     2.205000000     1.254000000
H     2.921000000     0.785000000     0.979000000
C     4.815000000    -0.078000000    -1.301000000
C     5.261000000     1.387000000    -1.424000000
H     5.617000000     1.533000000    -2.446000000
H     6.004000000     1.567000000    -0.645000000
C     4.133000000     2.424000000    -1.143000000
C     3.714000000     2.758000000     0.144000000
C     2.749000000     3.711000000     0.259000000
H     2.403000000     4.079000000     1.222000000
C     2.040000000     4.173000000    -0.836000000
O     0.910000000     5.045000000    -0.670000000
C    -0.307000000     4.242000000    -0.714000000
H     0.057000000     3.204000000    -0.694000000
C    -1.171000000     4.669000000     0.531000000
C    -2.433000000     4.163000000     0.641000000
H    -2.859000000     3.555000000    -0.153000000
C    -0.637000000     5.347000000     1.607000000
H     0.400000000     5.664000000     1.532000000
C    -1.408000000     5.643000000     2.739000000
O    -0.725000000     6.295000000     3.710000000
C    -2.712000000     5.204000000     2.857000000
H    -3.302000000     5.499000000     3.721000000
C    -3.252000000     4.408000000     1.831000000
O    -4.444000000     3.789000000     2.020000000
C    -5.389000000     3.613000000     1.096000000
C    -5.393000000     2.492000000     0.280000000
H    -4.625000000     1.728000000     0.369000000
C    -6.363000000     4.621000000     0.931000000
H    -6.392000000     5.600000000     1.403000000
C    -7.336000000     4.479000000    -0.067000000
H    -8.222000000     5.105000000    -0.133000000
C    -7.455000000     3.224000000    -0.684000000
H    -8.296000000     2.994000000    -1.333000000
C    -6.498000000     2.211000000    -0.542000000
O    -6.767000000     1.014000000    -1.128000000
C    -5.808000000     0.038000000    -1.395000000
C    -6.170000000    -1.274000000    -1.193000000
H    -7.123000000    -1.501000000    -0.723000000
C    -5.301000000    -2.287000000    -1.602000000
O    -5.773000000    -3.638000000    -1.581000000
C    -4.975000000    -4.745000000    -1.453000000
C    -3.984000000    -4.960000000    -0.509000000
H    -3.961000000    -4.234000000     0.300000000
C    -5.030000000    -5.711000000    -2.485000000
H    -5.729000000    -5.449000000    -3.275000000
C    -4.173000000    -6.768000000    -2.529000000
H    -4.133000000    -7.432000000    -3.388000000
C    -3.346000000    -7.014000000    -1.483000000
H    -2.838000000    -7.971000000    -1.397000000
C    -3.225000000    -6.112000000    -0.449000000
O    -2.465000000    -6.275000000     0.686000000
C    -1.085000000    -5.948000000     0.796000000
C    -0.431000000    -6.155000000     2.001000000
H    -0.823000000    -6.737000000     2.831000000
C     0.771000000    -5.576000000     2.208000000
O     1.339000000    -5.795000000     3.460000000
C     2.519000000    -5.155000000     3.892000000
C     2.441000000    -3.857000000     4.293000000
H     1.651000000    -3.186000000     3.967000000
C     3.563000000    -5.988000000     4.257000000
H     3.622000000    -7.051000000     4.037000000
C     4.566000000    -5.421000000     5.001000000
H     5.398000000    -6.042000000     5.323000000
C     4.476000000    -4.104000000     5.441000000
H     5.322000000    -3.652000000     5.953000000
C     3.430000000    -3.284000000     5.056000000
O     3.385000000    -2.010000000     5.521000000
C     3.082000000    -0.848000000     4.853000000
C     2.287000000     0.148000000     5.474000000
H     1.944000000    -0.016000000     6.493000000
C     1.980000000     1.295000000     4.743000000
O     1.311000000     2.339000000     5.448000000
C     1.415000000     3.651000000     5.183000000
C     2.556000000     4.381000000     5.510000000
H     3.311000000     3.886000000     6.116000000
C     2.637000000     5.746000000     5.272000000
H     3.498000000     6.318000000     5.607000000
C     1.519000000     6.426000000     4.692000000
H     1.432000000     7.510000000     4.697000000
C     0.342000000     5.712000000     4.398000000
C     0.342000000     4.345000000     4.616000000
H    -0.558000000     3.768000000     4.421000000
C    -1.196000000     0.819000000     1.092000000
H    -2.069000000     1.407000000     1.362000000
C    -0.718000000     0.969000000    -0.235000000
H    -1.153000000     1.642000000    -0.970000000
C     0.378000000     0.273000000    -0.710000000
H     0.797000000     0.561000000    -1.706000000
C     1.003000000    -0.596000000     0.152000000
H     1.891000000    -1.122000000    -0.189000000
C     0.599000000    -0.746000000     1.458000000
H     1.181000000    -1.398000000     2.103000000
C    -0.553000000    -0.025000000     1.907000000
C    -0.977000000    -0.113000000     3.313000000
O    -0.355000000    -0.829000000     4.102000000
O    -1.985000000     0.495000000     3.700000000
O    -0.850000000     0.341000000     6.588000000
H    -0.623000000     0.051000000     5.704000000
H    -0.454000000     1.209000000     6.665000000
O    -3.572000000    -1.076000000     5.261000000
H    -2.934000000    -1.002000000     5.971000000
H    -3.148000000    -0.658000000     4.512000000
O     0.803000000     1.283000000     9.215000000
H     0.026000000     1.403000000     8.669000000
H     1.538000000     1.452000000     8.626000000
O    -3.105000000     2.132000000     5.416000000
H    -3.837000000     2.113000000     4.799000000
H    -2.447000000     1.557000000     5.025000000
O     2.207000000    -2.689000000     7.993000000
H     2.246000000    -2.238000000     7.149000000
H     2.776000000    -2.174000000     8.565000000
O    -2.268000000     4.357000000     6.723000000
H    -2.628000000     5.044000000     6.162000000
H    -2.376000000     3.553000000     6.216000000
O    -4.460000000    -2.682000000     2.795000000
H    -4.161000000    -1.792000000     2.606000000
H    -4.695000000    -2.664000000     3.722000000
O    -6.619000000    -0.875000000     2.146000000
H    -5.882000000    -0.399000000     1.765000000
H    -6.734000000    -1.635000000     1.576000000
O    -5.850000000     1.999000000     3.921000000
H    -5.994000000     2.924000000     4.122000000
H    -6.698000000     1.687000000     3.607000000
O    -0.377000000    -5.635000000     5.997000000
H    -0.588000000    -5.282000000     5.132000000
H    -1.102000000    -6.227000000     6.198000000
O    -1.949000000    -1.454000000     8.586000000
H    -1.392000000    -2.230000000     8.532000000
H    -1.458000000    -0.774000000     8.125000000
O    -4.502000000    -0.767000000     9.009000000
H    -3.653000000    -1.178000000     8.849000000
H    -5.120000000    -1.284000000     8.492000000
O    -4.058000000    -3.897000000     6.829000000
H    -3.908000000    -4.841000000     6.778000000
H    -3.237000000    -3.508000000     6.525000000
O    -0.336000000    -3.735000000     8.305000000
H     0.555000000    -3.384000000     8.299000000
H    -0.342000000    -4.385000000     7.602000000
O    -1.729000000    -3.984000000     4.115000000
H    -2.132000000    -3.824000000     3.262000000
H    -1.012000000    -3.352000000     4.164000000
O    -6.256000000    -1.430000000     5.185000000
H    -6.396000000    -1.140000000     4.283000000
H    -5.370000000    -1.137000000     5.396000000
O    -4.318000000     0.371000000     2.385000000
H    -4.872000000     0.994000000     2.854000000
H    -3.429000000     0.575000000     2.676000000
O    -3.779000000     1.887000000     8.044000000
H    -3.864000000     0.933000000     8.030000000
H    -3.646000000     2.129000000     7.128000000
O    -6.793000000    -3.787000000     1.288000000
H    -6.621000000    -4.717000000     1.437000000
H    -6.080000000    -3.336000000     1.740000000
