215
-1445.46567
C    -3.612000000    -2.196000000    -1.798000000
H    -2.865000000    -2.955000000    -2.014000000
C    -3.471000000    -0.912000000    -2.323000000
C    -4.223000000     0.112000000    -1.795000000
H    -3.986000000     1.128000000    -2.097000000
C    -2.268000000    -0.612000000    -3.224000000
O    -1.862000000    -1.835000000    -3.886000000
H    -1.456000000    -0.337000000    -2.535000000
O    -2.629000000     0.392000000    -4.233000000
C    -1.632000000     1.381000000    -4.320000000
C    -1.805000000     2.504000000    -3.494000000
H    -2.764000000     2.776000000    -3.060000000
C    -0.706000000     3.299000000    -3.194000000
O    -0.936000000     4.417000000    -2.434000000
C     0.525000000     3.109000000    -3.884000000
C     1.758000000     3.932000000    -3.583000000
H     2.579000000     3.964000000    -4.302000000
C     2.455000000     3.605000000    -2.237000000
C     3.497000000     2.684000000    -2.246000000
H     3.838000000     2.226000000    -3.171000000
H     1.439000000     4.973000000    -3.503000000
C     0.674000000     1.991000000    -4.625000000
H     1.666000000     1.802000000    -5.028000000
C    -0.336000000     1.125000000    -4.854000000
C    -0.171000000    -0.257000000    -5.518000000
H     0.545000000    -0.055000000    -6.317000000
H    -1.066000000    -0.660000000    -5.996000000
C     0.400000000    -1.353000000    -4.650000000
C     1.737000000    -1.612000000    -4.314000000
H     2.468000000    -0.937000000    -4.750000000
C    -0.498000000    -2.168000000    -3.908000000
C    -0.183000000    -3.302000000    -3.200000000
H    -0.941000000    -3.882000000    -2.679000000
C     1.156000000    -3.579000000    -2.994000000
O     1.397000000    -4.466000000    -1.985000000
C     1.736000000    -4.027000000    -0.575000000
C     1.133000000    -4.971000000     0.481000000
C     1.813000000    -5.162000000     1.725000000
H     2.813000000    -4.762000000     1.871000000
C    -0.001000000    -5.720000000     0.241000000
H    -0.338000000    -5.830000000    -0.786000000
O     3.140000000    -3.943000000    -0.514000000
H     1.306000000    -3.018000000    -0.491000000
C     2.113000000    -2.649000000    -3.522000000
C     3.580000000    -2.902000000    -3.166000000
H     4.257000000    -2.710000000    -4.001000000
H     3.792000000    -3.960000000    -2.996000000
C     4.046000000    -2.163000000    -1.921000000
C     4.658000000    -0.956000000    -1.981000000
H     4.824000000    -0.483000000    -2.946000000
C     3.775000000    -2.712000000    -0.650000000
C     4.172000000    -2.020000000     0.471000000
H     4.023000000    -2.497000000     1.436000000
C     4.626000000    -0.712000000     0.430000000
O     4.607000000    -0.034000000     1.578000000
C     3.434000000     0.823000000     1.764000000
C     2.898000000     0.702000000     3.157000000
C     2.797000000    -0.501000000     3.821000000
H     3.259000000    -1.399000000     3.418000000
C     2.231000000     1.867000000     3.683000000
H     2.426000000     2.836000000     3.230000000
O     3.856000000     2.149000000     1.346000000
H     2.659000000     0.502000000     1.053000000
C     4.919000000    -0.141000000    -0.851000000
C     5.266000000     1.339000000    -1.003000000
H     5.826000000     1.600000000    -1.903000000
H     5.847000000     1.647000000    -0.132000000
C     3.996000000     2.254000000    -1.026000000
C     3.365000000     2.650000000     0.166000000
C     2.349000000     3.529000000     0.138000000
H     2.125000000     4.016000000     1.083000000
C     1.909000000     4.057000000    -1.033000000
O     0.876000000     4.944000000    -0.968000000
C    -0.468000000     4.425000000    -1.105000000
H    -0.505000000     3.390000000    -0.735000000
C    -1.392000000     5.202000000    -0.213000000
C    -2.753000000     5.184000000    -0.560000000
H    -3.090000000     4.814000000    -1.525000000
C    -1.049000000     5.726000000     1.018000000
H     0.005000000     5.684000000     1.280000000
C    -1.991000000     6.167000000     1.960000000
O    -1.542000000     6.564000000     3.199000000
C    -3.333000000     6.159000000     1.593000000
H    -4.141000000     6.501000000     2.235000000
C    -3.703000000     5.665000000     0.363000000
O    -5.077000000     5.651000000     0.045000000
C    -5.674000000     4.541000000    -0.570000000
C    -5.435000000     3.253000000    -0.196000000
H    -4.859000000     3.189000000     0.723000000
C    -6.453000000     4.792000000    -1.682000000
H    -6.502000000     5.802000000    -2.080000000
C    -7.163000000     3.722000000    -2.299000000
H    -7.810000000     3.947000000    -3.142000000
C    -7.021000000     2.427000000    -1.750000000
H    -7.620000000     1.595000000    -2.109000000
C    -6.129000000     2.174000000    -0.764000000
O    -5.920000000     0.912000000    -0.291000000
C    -5.185000000    -0.118000000    -0.825000000
C    -5.468000000    -1.450000000    -0.399000000
H    -6.304000000    -1.581000000     0.283000000
C    -4.679000000    -2.512000000    -0.875000000
O    -4.816000000    -3.711000000    -0.189000000
C    -4.180000000    -4.872000000    -0.509000000
C    -3.332000000    -5.554000000     0.436000000
H    -3.270000000    -5.206000000     1.464000000
C    -4.288000000    -5.364000000    -1.813000000
H    -4.983000000    -4.888000000    -2.500000000
C    -3.550000000    -6.500000000    -2.186000000
H    -3.545000000    -6.807000000    -3.228000000
C    -2.676000000    -7.101000000    -1.328000000
H    -1.944000000    -7.820000000    -1.686000000
C    -2.630000000    -6.669000000    -0.017000000
O    -1.767000000    -7.168000000     0.893000000
C    -0.627000000    -6.481000000     1.234000000
C    -0.014000000    -6.656000000     2.470000000
H    -0.369000000    -7.351000000     3.227000000
C     1.255000000    -6.015000000     2.764000000
O     1.870000000    -6.252000000     3.972000000
C     2.561000000    -5.230000000     4.639000000
C     1.847000000    -4.050000000     4.796000000
H     0.779000000    -4.002000000     4.600000000
C     3.871000000    -5.333000000     4.955000000
H     4.521000000    -6.196000000     4.835000000
C     4.517000000    -4.228000000     5.482000000
H     5.571000000    -4.265000000     5.748000000
C     3.841000000    -3.062000000     5.673000000
H     4.452000000    -2.185000000     5.869000000
C     2.491000000    -2.939000000     5.295000000
O     1.782000000    -1.859000000     5.566000000
C     1.978000000    -0.659000000     4.989000000
C     1.283000000     0.483000000     5.413000000
H     0.627000000     0.277000000     6.255000000
C     1.292000000     1.728000000     4.736000000
O     0.546000000     2.806000000     5.164000000
C     0.725000000     4.062000000     4.719000000
C     1.854000000     4.813000000     5.118000000
H     2.720000000     4.382000000     5.613000000
C     1.898000000     6.183000000     4.728000000
H     2.749000000     6.813000000     4.976000000
C     0.759000000     6.756000000     4.110000000
H     0.684000000     7.795000000     3.801000000
C    -0.380000000     6.029000000     3.814000000
C    -0.416000000     4.638000000     4.093000000
H    -1.235000000     3.933000000     3.971000000
C    -1.843000000     0.143000000     1.581000000
H    -2.716000000     0.733000000     1.851000000
C    -1.027000000     0.522000000     0.530000000
H    -1.375000000     1.299000000    -0.146000000
C     0.089000000    -0.204000000     0.211000000
H     0.664000000     0.169000000    -0.667000000
C     0.592000000    -1.114000000     1.128000000
H     1.589000000    -1.547000000     1.091000000
C    -0.235000000    -1.533000000     2.118000000
H     0.115000000    -2.279000000     2.827000000
C    -1.451000000    -0.910000000     2.386000000
C    -2.243000000    -1.269000000     3.574000000
O    -1.865000000    -2.130000000     4.363000000
O    -3.284000000    -0.726000000     3.918000000
O    -0.937000000    -2.372000000     6.745000000
H    -1.367000000    -2.166000000     5.915000000
H    -0.004000000    -2.386000000     6.535000000
O    -4.637000000    -1.984000000     5.865000000
H    -4.044000000    -1.625000000     5.205000000
H    -4.284000000    -2.853000000     6.056000000
O    -7.692000000    -2.108000000     6.397000000
H    -6.779000000    -1.976000000     6.142000000
H    -7.781000000    -1.630000000     7.222000000
O    -3.625000000     3.207000000     3.152000000
H    -4.455000000     3.634000000     2.939000000
H    -3.039000000     3.926000000     3.389000000
O     0.054000000    -4.903000000     7.377000000
H    -0.492000000    -4.126000000     7.258000000
H     0.858000000    -4.571000000     7.778000000
O    -2.895000000     3.806000000     6.061000000
H    -3.577000000     4.465000000     6.189000000
H    -3.371000000     3.010000000     5.823000000
O    -4.757000000    -5.347000000     4.325000000
H    -3.868000000    -5.108000000     4.060000000
H    -4.723000000    -5.369000000     5.281000000
O    -1.686000000    -7.088000000     6.924000000
H    -2.399000000    -7.103000000     7.563000000
H    -1.206000000    -6.283000000     7.120000000
O    -1.044000000     0.049000000     8.609000000
H    -1.161000000    -0.795000000     8.173000000
H    -1.789000000     0.575000000     8.317000000
O    -5.491000000    -0.951000000     8.190000000
H    -5.244000000    -1.214000000     7.303000000
H    -5.602000000    -1.777000000     8.662000000
O    -4.518000000    -4.589000000     7.015000000
H    -5.183000000    -4.189000000     7.576000000
H    -4.410000000    -5.473000000     7.365000000
O    -2.212000000    -4.489000000     3.591000000
H    -1.387000000    -4.806000000     3.224000000
H    -2.043000000    -3.572000000     3.805000000
O    -8.546000000     0.404000000     4.813000000
H    -9.443000000     0.077000000     4.743000000
H    -7.999000000    -0.375000000     4.711000000
O    -6.251000000    -0.729000000     3.414000000
H    -6.168000000     0.078000000     2.906000000
H    -5.356000000    -0.935000000     3.683000000
O    -3.711000000     1.251000000     7.891000000
H    -3.542000000     1.046000000     6.972000000
H    -4.235000000     0.516000000     8.208000000
O     0.852000000     2.766000000     7.872000000
H    -0.064000000     2.964000000     8.067000000
H     0.912000000     2.825000000     6.919000000
O    -3.736000000     1.425000000     5.172000000
H    -3.707000000     0.546000000     4.794000000
H    -3.574000000     2.010000000     4.432000000
O    -7.035000000    -6.694000000     3.953000000
H    -7.754000000    -6.114000000     3.704000000
H    -6.275000000    -6.117000000     4.023000000
O    -6.708000000    -3.703000000     3.182000000
H    -5.827000000    -3.991000000     3.420000000
H    -6.671000000    -2.748000000     3.240000000
