215
-1448.89791
C    -3.357000000     0.545000000    -4.212000000
H    -3.620000000    -0.484000000    -3.980000000
C    -1.983000000     0.809000000    -4.381000000
C    -1.585000000     2.092000000    -4.773000000
H    -0.535000000     2.286000000    -4.975000000
C    -0.967000000    -0.373000000    -4.198000000
O    -1.584000000    -1.653000000    -4.544000000
H    -0.628000000    -0.359000000    -3.151000000
O     0.201000000    -0.181000000    -5.041000000
C     1.423000000    -0.408000000    -4.537000000
C     2.129000000     0.684000000    -4.026000000
H     1.829000000     1.696000000    -4.283000000
C     3.222000000     0.469000000    -3.131000000
O     3.749000000     1.530000000    -2.492000000
C     3.729000000    -0.795000000    -2.992000000
C     4.937000000    -1.074000000    -2.148000000
H     5.367000000    -2.012000000    -2.505000000
C     4.659000000    -1.193000000    -0.653000000
C     4.302000000    -2.447000000    -0.081000000
H     4.162000000    -3.309000000    -0.728000000
H     5.668000000    -0.272000000    -2.271000000
C     2.934000000    -1.900000000    -3.448000000
H     3.380000000    -2.891000000    -3.488000000
C     1.871000000    -1.673000000    -4.243000000
C     1.004000000    -2.895000000    -4.697000000
H     1.739000000    -3.685000000    -4.865000000
H     0.518000000    -2.602000000    -5.629000000
C    -0.069000000    -3.242000000    -3.705000000
C     0.256000000    -4.188000000    -2.719000000
H     1.258000000    -4.609000000    -2.711000000
C    -1.324000000    -2.707000000    -3.726000000
C    -2.266000000    -3.065000000    -2.774000000
H    -3.238000000    -2.577000000    -2.771000000
C    -1.973000000    -4.020000000    -1.766000000
O    -2.769000000    -4.058000000    -0.671000000
C    -2.467000000    -3.243000000     0.443000000
C    -3.591000000    -2.382000000     0.918000000
C    -3.473000000    -1.757000000     2.177000000
H    -2.601000000    -1.850000000     2.819000000
C    -4.674000000    -2.193000000     0.070000000
H    -4.768000000    -2.746000000    -0.860000000
O    -1.912000000    -4.069000000     1.520000000
H    -1.649000000    -2.531000000     0.256000000
C    -0.708000000    -4.555000000    -1.695000000
C    -0.336000000    -5.411000000    -0.551000000
H     0.280000000    -6.205000000    -0.977000000
H    -1.211000000    -5.884000000    -0.099000000
C     0.329000000    -4.713000000     0.681000000
C     1.708000000    -4.542000000     0.757000000
H     2.322000000    -4.966000000    -0.033000000
C    -0.562000000    -4.198000000     1.722000000
C    -0.007000000    -3.473000000     2.756000000
H    -0.723000000    -3.003000000     3.425000000
C     1.400000000    -3.419000000     2.907000000
O     2.003000000    -2.773000000     3.927000000
C     2.355000000    -1.395000000     3.654000000
C     2.047000000    -0.491000000     4.830000000
C     0.789000000    -0.518000000     5.400000000
H     0.067000000    -1.236000000     5.019000000
C     2.880000000     0.537000000     5.203000000
H     3.810000000     0.775000000     4.692000000
O     3.792000000    -1.394000000     3.424000000
H     1.829000000    -0.980000000     2.781000000
C     2.270000000    -3.955000000     1.918000000
C     3.764000000    -3.752000000     1.978000000
H     4.201000000    -4.639000000     1.516000000
H     4.135000000    -3.768000000     3.004000000
C     4.172000000    -2.466000000     1.279000000
C     4.172000000    -1.351000000     2.101000000
C     4.358000000    -0.138000000     1.543000000
H     4.231000000     0.788000000     2.098000000
C     4.626000000    -0.037000000     0.160000000
O     4.644000000     1.257000000    -0.334000000
C     3.477000000     1.663000000    -1.071000000
H     2.699000000     0.925000000    -0.827000000
C     3.048000000     3.079000000    -0.739000000
C     2.354000000     3.944000000    -1.642000000
H     2.167000000     3.611000000    -2.659000000
C     3.125000000     3.447000000     0.593000000
H     3.523000000     2.741000000     1.316000000
C     2.544000000     4.590000000     1.092000000
O     2.245000000     4.767000000     2.466000000
C     1.940000000     5.512000000     0.219000000
H     1.394000000     6.386000000     0.563000000
C     1.787000000     5.130000000    -1.115000000
O     0.951000000     5.860000000    -1.840000000
C     0.691000000     5.545000000    -3.167000000
C    -0.536000000     5.027000000    -3.591000000
H    -1.270000000     4.847000000    -2.810000000
C     1.624000000     5.923000000    -4.120000000
H     2.579000000     6.297000000    -3.758000000
C     1.441000000     5.567000000    -5.416000000
H     2.223000000     5.688000000    -6.161000000
C     0.190000000     5.065000000    -5.819000000
H     0.000000000     4.899000000    -6.876000000
C    -0.808000000     4.785000000    -4.927000000
O    -2.033000000     4.313000000    -5.284000000
C    -2.483000000     3.094000000    -4.879000000
C    -3.848000000     2.889000000    -4.563000000
H    -4.480000000     3.758000000    -4.726000000
C    -4.310000000     1.543000000    -4.353000000
O    -5.640000000     1.219000000    -4.239000000
C    -6.154000000     0.102000000    -3.620000000
C    -5.998000000    -0.165000000    -2.303000000
H    -5.357000000     0.566000000    -1.816000000
C    -7.107000000    -0.637000000    -4.279000000
H    -7.497000000    -0.453000000    -5.276000000
C    -7.776000000    -1.647000000    -3.648000000
H    -8.446000000    -2.223000000    -4.281000000
C    -7.615000000    -1.886000000    -2.253000000
H    -8.337000000    -2.490000000    -1.708000000
C    -6.809000000    -1.029000000    -1.536000000
O    -6.832000000    -1.063000000    -0.195000000
C    -5.640000000    -1.286000000     0.523000000
C    -5.464000000    -0.473000000     1.663000000
H    -6.237000000     0.248000000     1.917000000
C    -4.460000000    -0.829000000     2.544000000
O    -4.262000000    -0.107000000     3.694000000
C    -3.658000000    -0.570000000     4.808000000
C    -2.685000000     0.181000000     5.476000000
H    -2.338000000     1.170000000     5.186000000
C    -3.962000000    -1.842000000     5.214000000
H    -4.793000000    -2.384000000     4.769000000
C    -3.377000000    -2.404000000     6.286000000
H    -3.667000000    -3.406000000     6.591000000
C    -2.249000000    -1.805000000     6.821000000
H    -1.805000000    -2.288000000     7.688000000
C    -2.009000000    -0.458000000     6.440000000
O    -0.853000000     0.143000000     7.063000000
C     0.370000000     0.327000000     6.384000000
C     1.271000000     1.268000000     6.907000000
H     0.922000000     1.934000000     7.692000000
C     2.501000000     1.441000000     6.233000000
O     3.208000000     2.546000000     6.555000000
C     3.621000000     3.347000000     5.544000000
C     4.951000000     3.782000000     5.468000000
H     5.601000000     3.340000000     6.218000000
C     5.345000000     4.667000000     4.402000000
H     6.337000000     5.110000000     4.442000000
C     4.442000000     5.004000000     3.357000000
H     4.792000000     5.634000000     2.543000000
C     3.148000000     4.468000000     3.431000000
C     2.710000000     3.804000000     4.576000000
H     1.668000000     3.502000000     4.640000000
C    -0.979000000     1.890000000     2.360000000
H    -1.229000000     2.220000000     3.365000000
C    -0.694000000     0.519000000     2.130000000
H    -0.540000000    -0.194000000     2.936000000
C    -0.386000000     0.132000000     0.847000000
H    -0.044000000    -0.937000000     0.670000000
C    -0.459000000     0.992000000    -0.174000000
H    -0.310000000     0.546000000    -1.154000000
C    -0.720000000     2.322000000     0.017000000
H    -0.676000000     3.004000000    -0.828000000
C    -1.052000000     2.836000000     1.312000000
C    -1.454000000     4.250000000     1.528000000
O    -1.690000000     5.026000000     0.610000000
O    -1.805000000     4.576000000     2.637000000
O    -5.133000000     7.230000000     3.187000000
H    -4.547000000     6.966000000     2.478000000
H    -4.562000000     7.312000000     3.951000000
O     3.194000000     7.980000000     2.176000000
H     2.467000000     7.393000000     2.384000000
H     2.933000000     8.404000000     1.359000000
O    -4.111000000     6.153000000     1.027000000
H    -4.924000000     5.649000000     1.057000000
H    -3.419000000     5.496000000     1.104000000
O     0.071000000     6.623000000     2.784000000
H    -0.832000000     6.325000000     2.675000000
H     0.598000000     5.831000000     2.678000000
O    -5.415000000     5.391000000    -2.567000000
H    -4.559000000     5.149000000    -2.214000000
H    -5.216000000     5.962000000    -3.309000000
O     0.370000000     6.250000000     6.767000000
H     1.239000000     6.327000000     7.160000000
H     0.040000000     7.148000000     6.739000000
O    -7.181000000     2.426000000     0.034000000
H    -7.519000000     2.042000000    -0.775000000
H    -7.849000000     2.231000000     0.690000000
O    -1.914000000     5.726000000     5.196000000
H    -1.018000000     5.724000000     5.533000000
H    -1.824000000     5.487000000     4.274000000
O    -1.316000000     7.777000000     0.249000000
H    -2.189000000     7.839000000     0.637000000
H    -1.232000000     6.858000000    -0.005000000
O    -4.517000000     2.326000000     0.575000000
H    -5.454000000     2.398000000     0.393000000
H    -4.329000000     1.391000000     0.500000000
O    -3.275000000     8.108000000     4.915000000
H    -2.555000000     8.728000000     4.797000000
H    -2.846000000     7.262000000     5.039000000
O    -5.497000000     7.751000000    -1.206000000
H    -5.790000000     7.120000000    -1.863000000
H    -5.011000000     7.226000000    -0.569000000
O    -3.345000000     4.303000000    -1.351000000
H    -2.651000000     4.666000000    -0.801000000
H    -3.678000000     3.556000000    -0.854000000
O    -0.331000000     9.070000000     3.933000000
H     0.397000000     9.144000000     4.551000000
H    -0.056000000     8.387000000     3.322000000
O    -6.741000000     5.122000000    -0.216000000
H    -6.165000000     4.947000000    -0.960000000
H    -7.022000000     4.255000000     0.079000000
O    -4.428000000     4.256000000     5.938000000
H    -3.520000000     4.511000000     5.774000000
H    -4.843000000     4.276000000     5.076000000
O     0.316000000     8.717000000    -1.591000000
H    -0.356000000     8.487000000    -0.950000000
H     0.707000000     7.880000000    -1.840000000
O    -4.565000000     3.562000000     3.085000000
H    -4.657000000     3.155000000     2.224000000
H    -3.664000000     3.885000000     3.102000000
O    -6.965000000     4.597000000     3.869000000
H    -6.343000000     3.932000000     3.577000000
H    -6.766000000     5.364000000     3.332000000
