215
-1452.24490
C    -4.320000000    -2.059000000    -2.122000000
H    -3.734000000    -2.971000000    -2.196000000
C    -3.937000000    -0.934000000    -2.828000000
C    -4.722000000     0.254000000    -2.676000000
H    -4.349000000     1.185000000    -3.095000000
C    -2.539000000    -0.827000000    -3.403000000
O    -2.103000000    -1.988000000    -4.109000000
H    -1.846000000    -0.690000000    -2.560000000
O    -2.496000000     0.344000000    -4.271000000
C    -1.328000000     1.078000000    -4.194000000
C    -1.404000000     2.229000000    -3.553000000
H    -2.333000000     2.531000000    -3.077000000
C    -0.349000000     3.064000000    -3.337000000
O    -0.448000000     4.212000000    -2.591000000
C     0.886000000     2.695000000    -3.942000000
C     2.150000000     3.549000000    -3.642000000
H     2.855000000     3.323000000    -4.445000000
C     2.780000000     3.246000000    -2.260000000
C     3.889000000     2.425000000    -2.133000000
H     4.283000000     1.962000000    -3.034000000
H     1.941000000     4.621000000    -3.623000000
C     1.015000000     1.473000000    -4.635000000
H     1.985000000     1.156000000    -5.009000000
C    -0.095000000     0.634000000    -4.726000000
C    -0.012000000    -0.649000000    -5.510000000
H     0.762000000    -0.610000000    -6.280000000
H    -0.883000000    -0.792000000    -6.152000000
C     0.295000000    -1.776000000    -4.576000000
C     1.641000000    -2.092000000    -4.295000000
H     2.420000000    -1.658000000    -4.917000000
C    -0.802000000    -2.437000000    -3.937000000
C    -0.468000000    -3.338000000    -2.941000000
H    -1.286000000    -3.948000000    -2.567000000
C     0.857000000    -3.688000000    -2.621000000
O     0.995000000    -4.571000000    -1.602000000
C     1.437000000    -4.013000000    -0.345000000
C     0.660000000    -4.642000000     0.771000000
C     1.243000000    -4.818000000     2.038000000
H     2.231000000    -4.436000000     2.278000000
C    -0.682000000    -5.093000000     0.597000000
H    -1.184000000    -4.965000000    -0.358000000
O     2.858000000    -4.194000000    -0.236000000
H     1.221000000    -2.944000000    -0.485000000
C     1.929000000    -3.083000000    -3.315000000
C     3.348000000    -3.281000000    -2.879000000
H     3.984000000    -3.162000000    -3.759000000
H     3.491000000    -4.336000000    -2.637000000
C     3.830000000    -2.515000000    -1.715000000
C     4.563000000    -1.345000000    -1.839000000
H     4.701000000    -0.946000000    -2.841000000
C     3.570000000    -2.997000000    -0.420000000
C     3.970000000    -2.254000000     0.702000000
H     3.670000000    -2.416000000     1.734000000
C     4.544000000    -1.050000000     0.566000000
O     4.735000000    -0.312000000     1.675000000
C     3.756000000     0.706000000     1.988000000
C     3.397000000     0.784000000     3.476000000
C     3.466000000    -0.271000000     4.368000000
H     3.828000000    -1.214000000     3.968000000
C     2.722000000     1.931000000     3.935000000
H     2.543000000     2.743000000     3.234000000
O     4.187000000     1.994000000     1.527000000
H     2.815000000     0.411000000     1.501000000
C     4.814000000    -0.589000000    -0.710000000
C     5.480000000     0.837000000    -0.878000000
H     6.007000000     0.800000000    -1.833000000
H     6.107000000     0.992000000     0.003000000
C     4.353000000     1.880000000    -0.894000000
C     3.825000000     2.468000000     0.283000000
C     2.845000000     3.488000000     0.156000000
H     2.549000000     4.037000000     1.046000000
C     2.234000000     3.723000000    -1.039000000
O     1.243000000     4.682000000    -1.090000000
C    -0.061000000     4.173000000    -1.223000000
H     0.157000000     3.104000000    -1.080000000
C    -1.081000000     4.621000000    -0.225000000
C    -2.400000000     4.791000000    -0.619000000
H    -2.668000000     4.496000000    -1.630000000
C    -0.736000000     4.840000000     1.144000000
H     0.309000000     4.721000000     1.419000000
C    -1.695000000     5.376000000     2.000000000
O    -1.325000000     5.846000000     3.203000000
C    -3.047000000     5.592000000     1.549000000
H    -3.723000000     5.956000000     2.319000000
C    -3.392000000     5.198000000     0.246000000
O    -4.722000000     5.159000000    -0.048000000
C    -5.328000000     4.608000000    -1.163000000
C    -5.651000000     3.194000000    -1.064000000
H    -5.443000000     2.610000000    -0.171000000
C    -5.604000000     5.233000000    -2.420000000
H    -5.475000000     6.307000000    -2.306000000
C    -6.164000000     4.602000000    -3.528000000
H    -6.255000000     5.112000000    -4.484000000
C    -6.558000000     3.311000000    -3.302000000
H    -6.873000000     2.718000000    -4.156000000
C    -6.336000000     2.597000000    -2.103000000
O    -6.807000000     1.362000000    -1.947000000
C    -5.878000000     0.256000000    -1.909000000
C    -6.272000000    -0.890000000    -1.264000000
H    -7.165000000    -0.927000000    -0.646000000
C    -5.500000000    -2.038000000    -1.388000000
O    -5.924000000    -3.148000000    -0.598000000
C    -5.125000000    -4.317000000    -0.516000000
C    -4.256000000    -4.579000000     0.520000000
H    -3.992000000    -3.924000000     1.346000000
C    -5.318000000    -5.238000000    -1.506000000
H    -6.028000000    -5.066000000    -2.310000000
C    -4.679000000    -6.511000000    -1.388000000
H    -4.963000000    -7.361000000    -2.004000000
C    -3.798000000    -6.753000000    -0.380000000
H    -3.151000000    -7.627000000    -0.367000000
C    -3.571000000    -5.756000000     0.553000000
O    -2.683000000    -6.074000000     1.581000000
C    -1.402000000    -5.634000000     1.662000000
C    -0.790000000    -5.746000000     2.898000000
H    -1.331000000    -6.257000000     3.689000000
C     0.530000000    -5.326000000     3.104000000
O     0.985000000    -5.476000000     4.432000000
C     2.065000000    -4.712000000     4.887000000
C     1.799000000    -3.471000000     5.398000000
H     0.759000000    -3.155000000     5.373000000
C     3.408000000    -5.153000000     4.885000000
H     3.636000000    -6.176000000     4.596000000
C     4.458000000    -4.398000000     5.396000000
H     5.479000000    -4.764000000     5.468000000
C     4.122000000    -3.090000000     5.776000000
H     4.933000000    -2.434000000     6.082000000
C     2.814000000    -2.669000000     5.868000000
O     2.563000000    -1.411000000     6.391000000
C     2.837000000    -0.275000000     5.631000000
C     2.423000000     0.930000000     6.095000000
H     1.823000000     0.871000000     7.000000000
C     2.439000000     2.101000000     5.264000000
O     1.733000000     3.184000000     5.797000000
C     1.528000000     4.307000000     4.982000000
C     2.547000000     5.204000000     4.760000000
H     3.584000000     5.068000000     5.057000000
C     2.200000000     6.395000000     4.118000000
H     2.986000000     7.103000000     3.870000000
C     0.924000000     6.558000000     3.612000000
H     0.816000000     7.492000000     3.066000000
C    -0.051000000     5.604000000     3.709000000
C     0.274000000     4.437000000     4.437000000
H    -0.465000000     3.751000000     4.843000000
C    -2.748000000     0.400000000     0.408000000
H    -3.698000000     0.877000000     0.181000000
C    -1.521000000     0.841000000    -0.120000000
H    -1.548000000     1.635000000    -0.862000000
C    -0.353000000     0.202000000     0.121000000
H     0.555000000     0.483000000    -0.319000000
C    -0.286000000    -0.858000000     0.964000000
H     0.672000000    -1.312000000     1.206000000
C    -1.474000000    -1.186000000     1.650000000
H    -1.374000000    -1.951000000     2.416000000
C    -2.705000000    -0.677000000     1.305000000
C    -3.980000000    -1.084000000     2.042000000
O    -3.989000000    -1.868000000     2.963000000
O    -4.992000000    -0.514000000     1.700000000
O    -8.801000000    -2.801000000    -0.945000000
H    -9.301000000    -2.132000000    -1.412000000
H    -7.890000000    -2.516000000    -1.020000000
O    -3.751000000    -1.047000000     5.591000000
H    -3.694000000    -1.181000000     4.645000000
H    -3.300000000    -1.802000000     5.968000000
O    -6.814000000    -4.124000000     5.445000000
H    -6.555000000    -3.250000000     5.153000000
H    -7.439000000    -3.964000000     6.152000000
O    -2.272000000    -3.297000000     6.255000000
H    -2.515000000    -3.533000000     7.151000000
H    -2.599000000    -4.020000000     5.720000000
O    -4.944000000     1.403000000     8.621000000
H    -5.196000000     0.963000000     7.809000000
H    -3.992000000     1.307000000     8.660000000
O    -4.677000000     1.573000000     4.910000000
H    -4.570000000     1.244000000     4.017000000
H    -4.460000000     0.827000000     5.468000000
O    -2.876000000     3.743000000     5.886000000
H    -3.325000000     2.901000000     5.816000000
H    -3.540000000     4.390000000     5.646000000
O    -7.717000000    -1.350000000     1.806000000
H    -6.779000000    -1.180000000     1.730000000
H    -8.125000000    -0.489000000     1.716000000
O    -9.493000000     1.357000000     1.194000000
H    -8.561000000     1.571000000     1.168000000
H    -9.932000000     2.204000000     1.270000000
O    -6.667000000     5.521000000     2.343000000
H    -7.469000000     5.028000000     2.166000000
H    -6.008000000     5.115000000     1.780000000
O    -3.693000000    -6.913000000     4.664000000
H    -3.833000000    -6.037000000     4.303000000
H    -4.320000000    -6.979000000     5.383000000
O    -7.724000000     1.409000000     4.652000000
H    -8.579000000     1.833000000     4.727000000
H    -7.181000000     1.847000000     5.308000000
O    -4.227000000    -4.112000000     4.623000000
H    -5.148000000    -4.340000000     4.746000000
H    -4.244000000    -3.362000000     4.029000000
O    -6.899000000     1.401000000     1.908000000
H    -7.223000000     1.345000000     2.807000000
H    -6.118000000     0.848000000     1.900000000
O    -6.376000000    -0.505000000     7.032000000
H    -6.087000000    -0.942000000     6.231000000
H    -7.254000000    -0.183000000     6.826000000
O    -0.566000000    -1.345000000     7.323000000
H    -1.126000000    -1.563000000     6.578000000
H    -0.847000000    -1.942000000     8.016000000
O    -6.296000000    -1.696000000     4.431000000
H    -5.626000000    -1.625000000     3.751000000
H    -6.937000000    -1.022000000     4.206000000
O    -8.018000000    -4.159000000     1.815000000
H    -7.613000000    -3.951000000     2.657000000
H    -7.634000000    -3.531000000     1.203000000
O   -10.693000000    -2.230000000     2.684000000
H    -9.758000000    -2.057000000     2.578000000
H   -11.059000000    -1.395000000     2.977000000
