215
-1482.47722
C    -4.382000000    -1.248000000    -2.508000000
H    -3.859000000    -2.197000000    -2.591000000
C    -3.817000000    -0.100000000    -3.016000000
C    -4.488000000     1.128000000    -2.828000000
H    -4.042000000     2.052000000    -3.187000000
C    -2.439000000    -0.138000000    -3.535000000
O    -2.203000000    -1.404000000    -4.223000000
H    -1.786000000    -0.089000000    -2.651000000
O    -2.175000000     0.927000000    -4.458000000
C    -1.004000000     1.539000000    -4.264000000
C    -0.917000000     2.669000000    -3.445000000
H    -1.755000000     3.194000000    -2.994000000
C     0.349000000     3.193000000    -3.177000000
O     0.368000000     4.249000000    -2.289000000
C     1.513000000     2.564000000    -3.629000000
C     2.819000000     3.168000000    -3.392000000
H     3.404000000     2.790000000    -4.233000000
C     3.322000000     2.695000000    -2.017000000
C     4.251000000     1.586000000    -1.996000000
H     4.485000000     1.155000000    -2.966000000
H     2.723000000     4.253000000    -3.466000000
C     1.442000000     1.480000000    -4.543000000
H     2.368000000     0.992000000    -4.834000000
C     0.145000000     0.967000000    -4.811000000
C     0.130000000    -0.373000000    -5.552000000
H     0.904000000    -0.352000000    -6.322000000
H    -0.813000000    -0.486000000    -6.091000000
C     0.167000000    -1.580000000    -4.599000000
C     1.390000000    -2.109000000    -4.164000000
H     2.325000000    -1.756000000    -4.590000000
C    -0.982000000    -2.062000000    -4.019000000
C    -1.002000000    -3.195000000    -3.243000000
H    -1.891000000    -3.632000000    -2.796000000
C     0.244000000    -3.677000000    -2.791000000
O     0.286000000    -4.505000000    -1.685000000
C     0.633000000    -4.012000000    -0.377000000
C    -0.373000000    -4.422000000     0.695000000
C    -0.074000000    -4.274000000     2.047000000
H     0.906000000    -3.887000000     2.314000000
C    -1.663000000    -4.836000000     0.340000000
H    -1.828000000    -5.124000000    -0.695000000
O     1.934000000    -4.357000000    -0.088000000
H     0.697000000    -2.917000000    -0.288000000
C     1.467000000    -3.196000000    -3.261000000
C     2.825000000    -3.790000000    -2.881000000
H     3.498000000    -3.658000000    -3.730000000
H     2.817000000    -4.857000000    -2.648000000
C     3.310000000    -3.070000000    -1.626000000
C     4.155000000    -2.010000000    -1.809000000
H     4.365000000    -1.735000000    -2.840000000
C     2.900000000    -3.446000000    -0.348000000
C     3.449000000    -2.848000000     0.767000000
H     3.225000000    -3.214000000     1.766000000
C     4.311000000    -1.761000000     0.627000000
O     4.631000000    -1.144000000     1.791000000
C     3.862000000     0.040000000     2.044000000
C     3.599000000     0.239000000     3.550000000
C     3.298000000    -0.906000000     4.342000000
H     3.319000000    -1.886000000     3.872000000
C     3.519000000     1.516000000     4.144000000
H     3.637000000     2.458000000     3.615000000
O     4.702000000     1.122000000     1.608000000
H     2.930000000     0.004000000     1.462000000
C     4.688000000    -1.379000000    -0.642000000
C     5.590000000    -0.186000000    -0.917000000
H     6.121000000    -0.402000000    -1.847000000
H     6.398000000    -0.102000000    -0.188000000
C     4.730000000     1.089000000    -0.843000000
C     4.431000000     1.717000000     0.375000000
C     3.495000000     2.826000000     0.393000000
H     3.177000000     3.169000000     1.374000000
C     3.059000000     3.375000000    -0.796000000
O     2.154000000     4.354000000    -0.729000000
C     0.802000000     3.908000000    -0.964000000
H     0.751000000     2.809000000    -0.959000000
C    -0.214000000     4.484000000     0.073000000
C    -1.555000000     4.759000000    -0.309000000
H    -1.912000000     4.603000000    -1.324000000
C     0.035000000     4.507000000     1.415000000
H     0.977000000     4.128000000     1.804000000
C    -0.887000000     5.024000000     2.344000000
O    -0.478000000     5.168000000     3.690000000
C    -2.148000000     5.423000000     1.963000000
H    -2.831000000     5.839000000     2.699000000
C    -2.484000000     5.235000000     0.632000000
O    -3.798000000     5.495000000     0.328000000
C    -4.427000000     5.083000000    -0.815000000
C    -5.177000000     3.929000000    -0.899000000
H    -5.399000000     3.355000000    -0.002000000
C    -4.309000000     5.881000000    -1.925000000
H    -3.764000000     6.820000000    -1.872000000
C    -5.024000000     5.590000000    -3.102000000
H    -4.868000000     6.320000000    -3.892000000
C    -5.737000000     4.384000000    -3.216000000
H    -6.210000000     4.081000000    -4.147000000
C    -5.860000000     3.582000000    -2.099000000
O    -6.457000000     2.333000000    -2.197000000
C    -5.772000000     1.142000000    -2.314000000
C    -6.286000000    -0.015000000    -1.794000000
H    -7.250000000    -0.006000000    -1.292000000
C    -5.619000000    -1.161000000    -1.884000000
O    -6.294000000    -2.239000000    -1.380000000
C    -5.773000000    -3.512000000    -1.323000000
C    -4.859000000    -3.787000000    -0.314000000
H    -4.454000000    -3.013000000     0.334000000
C    -6.236000000    -4.490000000    -2.236000000
H    -6.965000000    -4.226000000    -2.998000000
C    -5.851000000    -5.808000000    -1.981000000
H    -6.322000000    -6.575000000    -2.590000000
C    -5.048000000    -6.137000000    -0.911000000
H    -4.648000000    -7.127000000    -0.706000000
C    -4.524000000    -5.122000000    -0.155000000
O    -3.903000000    -5.421000000     1.019000000
C    -2.564000000    -5.205000000     1.332000000
C    -2.241000000    -5.058000000     2.673000000
H    -2.973000000    -5.204000000     3.464000000
C    -0.978000000    -4.603000000     3.042000000
O    -0.663000000    -4.489000000     4.366000000
C     0.622000000    -4.349000000     4.815000000
C     1.022000000    -3.162000000     5.373000000
H     0.359000000    -2.303000000     5.437000000
C     1.456000000    -5.465000000     4.854000000
H     1.117000000    -6.349000000     4.319000000
C     2.788000000    -5.363000000     5.317000000
H     3.411000000    -6.245000000     5.190000000
C     3.180000000    -4.141000000     5.864000000
H     4.180000000    -3.913000000     6.223000000
C     2.273000000    -3.079000000     5.939000000
O     2.631000000    -1.895000000     6.488000000
C     2.880000000    -0.800000000     5.669000000
C     2.804000000     0.469000000     6.207000000
H     2.643000000     0.533000000     7.279000000
C     3.129000000     1.644000000     5.493000000
O     2.954000000     2.860000000     6.085000000
C     2.519000000     3.966000000     5.430000000
C     3.538000000     4.865000000     4.964000000
H     4.587000000     4.714000000     5.205000000
C     3.223000000     5.847000000     4.080000000
H     3.986000000     6.494000000     3.653000000
C     1.895000000     5.874000000     3.591000000
H     1.552000000     6.625000000     2.884000000
C     0.866000000     5.071000000     4.105000000
C     1.179000000     4.041000000     5.018000000
H     0.475000000     3.253000000     5.275000000
C    -1.822000000     0.874000000     1.401000000
H    -2.683000000     1.529000000     1.500000000
C    -0.996000000     0.852000000     0.276000000
H    -1.118000000     1.449000000    -0.624000000
C     0.177000000     0.062000000     0.348000000
H     0.767000000     0.060000000    -0.550000000
C     0.442000000    -0.704000000     1.432000000
H     1.332000000    -1.329000000     1.401000000
C    -0.326000000    -0.671000000     2.573000000
H    -0.104000000    -1.251000000     3.466000000
C    -1.490000000     0.060000000     2.511000000
C    -2.366000000     0.143000000     3.757000000
O    -2.100000000    -0.513000000     4.701000000
O    -3.444000000     0.779000000     3.796000000
O    -2.328000000     2.141000000     6.319000000
H    -2.560000000     1.587000000     5.574000000
H    -1.664000000     1.640000000     6.793000000
O    -8.638000000    -1.723000000     3.502000000
H    -7.907000000    -1.701000000     4.120000000
H    -8.373000000    -2.360000000     2.840000000
O    -2.001000000    -2.252000000     6.740000000
H    -2.729000000    -2.695000000     6.305000000
H    -1.706000000    -1.598000000     6.107000000
O    -3.800000000     2.779000000     9.182000000
H    -3.709000000     2.826000000     8.230000000
H    -3.190000000     2.091000000     9.447000000
O    -2.873000000     4.697000000     5.458000000
H    -3.559000000     4.382000000     4.869000000
H    -2.433000000     3.902000000     5.761000000
O    -6.670000000    -1.751000000     8.089000000
H    -5.927000000    -1.152000000     8.153000000
H    -7.234000000    -1.513000000     8.825000000
O    -5.151000000     0.084000000     1.834000000
H    -4.633000000     0.354000000     2.593000000
H    -4.636000000     0.368000000     1.079000000
O    -4.121000000    -0.469000000     7.783000000
H    -3.412000000    -0.126000000     8.327000000
H    -3.775000000    -1.286000000     7.425000000
O    -6.035000000     5.392000000     3.163000000
H    -5.449000000     4.685000000     3.432000000
H    -5.616000000     5.770000000     2.391000000
O    -1.862000000     0.199000000     9.046000000
H    -1.038000000     0.482000000     9.443000000
H    -1.680000000    -0.681000000     8.718000000
O    -5.722000000    -4.708000000     4.687000000
H    -5.206000000    -3.911000000     4.815000000
H    -6.548000000    -4.401000000     4.315000000
O    -6.581000000     3.267000000     5.727000000
H    -7.286000000     3.184000000     5.084000000
H    -6.241000000     2.378000000     5.825000000
O    -3.306000000    -5.685000000     5.749000000
H    -2.828000000    -4.856000000     5.744000000
H    -4.224000000    -5.433000000     5.652000000
O    -3.982000000    -2.481000000     4.750000000
H    -4.790000000    -2.005000000     4.557000000
H    -3.350000000    -2.149000000     4.112000000
O    -4.311000000     3.334000000     3.587000000
H    -4.884000000     3.006000000     4.281000000
H    -3.655000000     2.646000000     3.473000000
O    -6.508000000    -1.468000000     5.199000000
H    -7.193000000    -1.513000000     5.865000000
H    -6.264000000    -0.543000000     5.168000000
O    -0.509000000    -3.609000000     8.409000000
H    -0.926000000    -4.469000000     8.351000000
H    -1.038000000    -3.047000000     7.843000000
O    -5.236000000     0.985000000     5.772000000
H    -4.951000000     0.503000000     6.548000000
H    -4.582000000     0.773000000     5.105000000
O    -7.848000000    -0.133000000     1.225000000
H    -8.391000000    -0.236000000     2.007000000
H    -6.972000000     0.049000000     1.564000000
