215
-1451.24946
C    -4.617000000    -0.739000000    -1.771000000
H    -4.099000000    -1.689000000    -1.668000000
C    -4.023000000     0.185000000    -2.638000000
C    -4.635000000     1.425000000    -2.846000000
H    -4.151000000     2.181000000    -3.460000000
C    -2.697000000    -0.121000000    -3.283000000
O    -2.682000000    -1.462000000    -3.787000000
H    -1.930000000    -0.069000000    -2.497000000
O    -2.369000000     0.782000000    -4.357000000
C    -1.075000000     1.344000000    -4.410000000
C    -0.864000000     2.593000000    -3.875000000
H    -1.674000000     3.092000000    -3.349000000
C     0.436000000     2.992000000    -3.701000000
O     0.652000000     4.149000000    -2.971000000
C     1.530000000     2.278000000    -4.194000000
C     2.980000000     2.807000000    -4.030000000
H     3.652000000     2.524000000    -4.842000000
C     3.562000000     2.410000000    -2.762000000
C     4.206000000     1.151000000    -2.652000000
H     4.330000000     0.467000000    -3.488000000
H     2.900000000     3.892000000    -3.926000000
C     1.279000000     1.161000000    -4.910000000
H     2.082000000     0.705000000    -5.482000000
C    -0.022000000     0.601000000    -4.963000000
C    -0.282000000    -0.806000000    -5.413000000
H     0.477000000    -1.149000000    -6.119000000
H    -1.222000000    -0.788000000    -5.968000000
C    -0.369000000    -1.889000000    -4.300000000
C     0.780000000    -2.586000000    -3.967000000
H     1.679000000    -2.366000000    -4.537000000
C    -1.531000000    -2.254000000    -3.595000000
C    -1.494000000    -3.192000000    -2.526000000
H    -2.450000000    -3.374000000    -2.041000000
C    -0.372000000    -3.911000000    -2.260000000
O    -0.320000000    -4.760000000    -1.170000000
C     0.221000000    -4.157000000    -0.057000000
C    -0.649000000    -4.284000000     1.154000000
C    -0.086000000    -4.297000000     2.436000000
H     0.964000000    -4.074000000     2.608000000
C    -2.025000000    -4.456000000     1.022000000
H    -2.397000000    -4.592000000     0.010000000
O     1.534000000    -4.631000000     0.190000000
H     0.255000000    -3.093000000    -0.332000000
C     0.780000000    -3.560000000    -2.962000000
C     2.081000000    -4.299000000    -2.708000000
H     2.680000000    -4.284000000    -3.620000000
H     1.910000000    -5.363000000    -2.533000000
C     2.785000000    -3.574000000    -1.647000000
C     3.726000000    -2.583000000    -2.011000000
H     3.765000000    -2.289000000    -3.057000000
C     2.606000000    -3.800000000    -0.282000000
C     3.269000000    -3.064000000     0.664000000
H     3.075000000    -3.199000000     1.725000000
C     4.185000000    -2.144000000     0.304000000
O     4.661000000    -1.390000000     1.292000000
C     4.019000000    -0.199000000     1.524000000
C     3.718000000    -0.133000000     2.991000000
C     3.960000000    -1.166000000     3.931000000
H     4.540000000    -2.026000000     3.607000000
C     3.076000000     0.985000000     3.455000000
H     2.715000000     1.640000000     2.666000000
O     4.716000000     0.933000000     0.946000000
H     3.025000000    -0.193000000     1.052000000
C     4.460000000    -1.845000000    -1.044000000
C     5.336000000    -0.676000000    -1.411000000
H     5.794000000    -0.838000000    -2.389000000
H     6.151000000    -0.564000000    -0.693000000
C     4.566000000     0.637000000    -1.439000000
C     4.311000000     1.340000000    -0.259000000
C     3.743000000     2.540000000    -0.303000000
H     3.573000000     3.119000000     0.600000000
C     3.337000000     3.086000000    -1.538000000
O     2.589000000     4.204000000    -1.484000000
C     1.178000000     3.999000000    -1.601000000
H     0.938000000     2.974000000    -1.286000000
C     0.367000000     4.864000000    -0.673000000
C    -1.057000000     4.907000000    -0.762000000
H    -1.663000000     4.513000000    -1.574000000
C     0.976000000     5.318000000     0.475000000
H     2.018000000     5.091000000     0.687000000
C     0.209000000     5.805000000     1.559000000
O     0.848000000     6.151000000     2.721000000
C    -1.174000000     5.881000000     1.541000000
H    -1.651000000     6.258000000     2.441000000
C    -1.763000000     5.399000000     0.346000000
O    -3.128000000     5.477000000     0.348000000
C    -3.937000000     5.367000000    -0.800000000
C    -4.764000000     4.287000000    -0.839000000
H    -4.775000000     3.555000000    -0.035000000
C    -3.834000000     6.362000000    -1.782000000
H    -3.111000000     7.159000000    -1.623000000
C    -4.733000000     6.254000000    -2.802000000
H    -4.713000000     7.011000000    -3.582000000
C    -5.497000000     5.108000000    -2.996000000
H    -6.246000000     5.031000000    -3.781000000
C    -5.531000000     4.139000000    -1.996000000
O    -6.293000000     3.002000000    -2.139000000
C    -5.792000000     1.745000000    -2.154000000
C    -6.435000000     0.729000000    -1.376000000
H    -7.353000000     0.868000000    -0.810000000
C    -5.839000000    -0.497000000    -1.167000000
O    -6.570000000    -1.454000000    -0.535000000
C    -6.133000000    -2.708000000    -0.348000000
C    -5.320000000    -3.050000000     0.754000000
H    -4.889000000    -2.229000000     1.321000000
C    -6.659000000    -3.683000000    -1.187000000
H    -7.365000000    -3.441000000    -1.977000000
C    -6.371000000    -5.023000000    -0.978000000
H    -6.825000000    -5.768000000    -1.626000000
C    -5.569000000    -5.358000000     0.134000000
H    -5.399000000    -6.428000000     0.226000000
C    -5.007000000    -4.382000000     0.941000000
O    -4.238000000    -4.788000000     2.056000000
C    -2.865000000    -4.557000000     2.128000000
C    -2.324000000    -4.520000000     3.412000000
H    -2.925000000    -4.590000000     4.315000000
C    -0.944000000    -4.341000000     3.533000000
O    -0.482000000    -4.106000000     4.835000000
C     0.789000000    -4.314000000     5.222000000
C     1.540000000    -3.171000000     5.396000000
H     1.265000000    -2.155000000     5.126000000
C     1.274000000    -5.608000000     5.387000000
H     0.563000000    -6.419000000     5.245000000
C     2.446000000    -5.809000000     5.977000000
H     2.788000000    -6.788000000     6.306000000
C     3.275000000    -4.639000000     6.208000000
H     4.229000000    -4.780000000     6.710000000
C     2.816000000    -3.324000000     5.840000000
O     3.657000000    -2.239000000     6.039000000
C     3.522000000    -1.084000000     5.245000000
C     2.822000000     0.020000000     5.673000000
H     2.598000000     0.097000000     6.734000000
C     2.644000000     1.112000000     4.795000000
O     1.974000000     2.298000000     5.179000000
C     2.402000000     3.425000000     4.612000000
C     3.716000000     3.867000000     4.812000000
H     4.467000000     3.258000000     5.308000000
C     4.110000000     5.101000000     4.187000000
H     5.098000000     5.552000000     4.242000000
C     3.094000000     5.795000000     3.469000000
H     3.269000000     6.745000000     2.971000000
C     1.790000000     5.370000000     3.416000000
C     1.449000000     4.178000000     3.982000000
H     0.400000000     3.904000000     3.910000000
C    -2.299000000     0.831000000     0.656000000
H    -3.183000000     1.413000000     0.905000000
C    -1.506000000     1.115000000    -0.425000000
H    -1.858000000     1.947000000    -1.030000000
C    -0.313000000     0.495000000    -0.698000000
H     0.299000000     0.856000000    -1.533000000
C     0.070000000    -0.491000000     0.237000000
H     1.031000000    -0.889000000    -0.080000000
C    -0.809000000    -0.918000000     1.231000000
H    -0.407000000    -1.704000000     1.866000000
C    -1.906000000    -0.196000000     1.526000000
C    -2.752000000    -0.483000000     2.766000000
O    -2.343000000    -1.331000000     3.522000000
O    -3.566000000     0.344000000     3.126000000
O    -4.243000000    -7.985000000     2.761000000
H    -3.668000000    -8.600000000     3.216000000
H    -3.646000000    -7.357000000     2.353000000
O    -3.303000000     1.911000000     7.949000000
H    -4.161000000     1.981000000     8.369000000
H    -3.404000000     1.200000000     7.316000000
O    -8.951000000    -3.020000000     1.174000000
H    -8.221000000    -3.088000000     0.558000000
H    -8.813000000    -3.741000000     1.789000000
O    -1.392000000    -1.716000000     5.988000000
H    -1.443000000    -2.671000000     5.976000000
H    -1.556000000    -1.456000000     5.081000000
O    -5.616000000    -6.477000000     4.741000000
H    -5.009000000    -6.751000000     4.052000000
H    -6.201000000    -5.854000000     4.310000000
O    -3.105000000     4.280000000     5.402000000
H    -2.897000000     3.780000000     4.613000000
H    -2.381000000     4.096000000     6.001000000
O    -5.963000000     0.996000000     2.235000000
H    -6.111000000     0.505000000     3.043000000
H    -5.016000000     0.961000000     2.103000000
O    -7.430000000     3.091000000     1.859000000
H    -6.935000000     2.305000000     2.090000000
H    -7.551000000     3.551000000     2.689000000
O    -4.405000000     0.118000000     5.797000000
H    -3.824000000     0.372000000     5.080000000
H    -5.287000000     0.235000000     5.443000000
O    -4.680000000     4.963000000     2.982000000
H    -3.948000000     4.627000000     2.464000000
H    -4.403000000     4.846000000     3.891000000
O    -0.604000000     0.361000000     7.489000000
H    -0.967000000    -0.071000000     8.262000000
H    -0.641000000    -0.305000000     6.802000000
O    -6.951000000    -3.143000000     4.565000000
H    -6.095000000    -2.715000000     4.550000000
H    -6.928000000    -3.700000000     5.343000000
O    -7.897000000    -0.150000000     7.860000000
H    -7.379000000    -0.153000000     8.666000000
H    -7.730000000     0.709000000     7.472000000
O    -1.844000000    -4.340000000     8.487000000
H    -2.353000000    -5.016000000     8.039000000
H    -1.913000000    -4.564000000     9.415000000
O    -4.250000000    -2.229000000     4.883000000
H    -4.154000000    -1.493000000     5.487000000
H    -3.475000000    -2.181000000     4.323000000
O    -2.813000000     2.807000000     3.285000000
H    -3.361000000     2.036000000     3.432000000
H    -2.020000000     2.464000000     2.874000000
O    -6.943000000    -0.118000000     4.532000000
H    -7.876000000    -0.088000000     4.743000000
H    -6.744000000    -1.052000000     4.460000000
O    -9.132000000    -0.264000000     1.894000000
H    -9.040000000    -1.215000000     1.955000000
H    -8.236000000     0.067000000     1.950000000
O     0.909000000     2.492000000     8.014000000
H     0.559000000     1.701000000     7.604000000
H     0.163000000     2.871000000     8.478000000
