215
-1428.00668
C    -3.903000000    -0.853000000    -2.536000000
H    -3.422000000    -1.657000000    -1.986000000
C    -3.218000000    -0.202000000    -3.535000000
C    -3.739000000     0.998000000    -4.049000000
H    -3.192000000     1.593000000    -4.775000000
C    -1.774000000    -0.613000000    -3.853000000
O    -1.697000000    -2.047000000    -4.178000000
H    -1.085000000    -0.440000000    -3.014000000
O    -1.248000000     0.157000000    -4.991000000
C    -0.013000000     0.660000000    -4.839000000
C     0.078000000     1.917000000    -4.258000000
H    -0.865000000     2.439000000    -4.115000000
C     1.336000000     2.409000000    -3.964000000
O     1.427000000     3.550000000    -3.256000000
C     2.508000000     1.576000000    -4.091000000
C     3.909000000     1.956000000    -3.561000000
H     4.681000000     1.409000000    -4.106000000
C     3.973000000     1.560000000    -2.045000000
C     4.680000000     0.466000000    -1.602000000
H     4.893000000    -0.273000000    -2.370000000
H     4.010000000     3.035000000    -3.695000000
C     2.339000000     0.272000000    -4.595000000
H     3.138000000    -0.462000000    -4.537000000
C     1.079000000    -0.152000000    -5.068000000
C     0.825000000    -1.650000000    -5.332000000
H     1.722000000    -1.876000000    -5.913000000
H     0.038000000    -1.878000000    -6.054000000
C     0.603000000    -2.534000000    -4.142000000
C     1.714000000    -3.104000000    -3.545000000
H     2.741000000    -2.874000000    -3.818000000
C    -0.690000000    -2.747000000    -3.704000000
C    -0.918000000    -3.530000000    -2.596000000
H    -1.940000000    -3.763000000    -2.308000000
C     0.124000000    -4.161000000    -1.959000000
O    -0.211000000    -4.842000000    -0.841000000
C     0.051000000    -4.156000000     0.438000000
C    -1.106000000    -4.242000000     1.390000000
C    -0.836000000    -4.238000000     2.719000000
H     0.219000000    -4.244000000     2.983000000
C    -2.430000000    -4.463000000     0.993000000
H    -2.718000000    -4.560000000    -0.050000000
O     1.340000000    -4.569000000     1.010000000
H     0.130000000    -3.063000000     0.343000000
C     1.420000000    -3.937000000    -2.458000000
C     2.539000000    -4.555000000    -1.616000000
H     3.366000000    -4.882000000    -2.250000000
H     2.212000000    -5.507000000    -1.193000000
C     3.057000000    -3.765000000    -0.391000000
C     4.209000000    -2.945000000    -0.596000000
H     4.694000000    -2.770000000    -1.553000000
C     2.483000000    -3.846000000     0.840000000
C     2.985000000    -3.142000000     1.902000000
H     2.432000000    -3.153000000     2.838000000
C     4.059000000    -2.275000000     1.701000000
O     4.349000000    -1.406000000     2.753000000
C     3.787000000    -0.092000000     2.631000000
C     3.312000000     0.276000000     4.066000000
C     2.858000000    -0.667000000     4.988000000
H     2.921000000    -1.684000000     4.609000000
C     3.204000000     1.595000000     4.360000000
H     3.393000000     2.313000000     3.565000000
O     4.582000000     0.943000000     2.039000000
H     2.863000000    -0.163000000     2.038000000
C     4.687000000    -2.221000000     0.452000000
C     5.672000000    -1.040000000     0.221000000
H     6.443000000    -1.278000000    -0.514000000
H     6.291000000    -0.814000000     1.092000000
C     4.930000000     0.210000000    -0.261000000
C     4.474000000     1.160000000     0.675000000
C     3.831000000     2.317000000     0.232000000
H     3.432000000     3.057000000     0.921000000
C     3.550000000     2.435000000    -1.084000000
O     2.900000000     3.547000000    -1.408000000
C     1.484000000     3.360000000    -1.809000000
H     1.142000000     2.333000000    -1.611000000
C     0.493000000     4.328000000    -1.142000000
C    -0.655000000     4.836000000    -1.869000000
H    -0.881000000     4.692000000    -2.922000000
C     0.476000000     4.277000000     0.253000000
H     1.259000000     3.733000000     0.774000000
C    -0.586000000     4.912000000     0.928000000
O    -0.549000000     4.856000000     2.322000000
C    -1.650000000     5.577000000     0.292000000
H    -2.406000000     6.127000000     0.847000000
C    -1.710000000     5.453000000    -1.125000000
O    -2.698000000     6.073000000    -1.711000000
C    -3.474000000     5.658000000    -2.727000000
C    -3.928000000     4.351000000    -2.816000000
H    -3.576000000     3.662000000    -2.053000000
C    -3.736000000     6.589000000    -3.725000000
H    -3.291000000     7.580000000    -3.757000000
C    -4.745000000     6.290000000    -4.690000000
H    -4.957000000     7.017000000    -5.469000000
C    -5.340000000     4.980000000    -4.696000000
H    -6.078000000     4.687000000    -5.438000000
C    -4.827000000     3.980000000    -3.862000000
O    -5.413000000     2.731000000    -4.000000000
C    -4.878000000     1.536000000    -3.502000000
C    -5.601000000     0.912000000    -2.571000000
H    -6.545000000     1.366000000    -2.279000000
C    -5.089000000    -0.269000000    -1.997000000
O    -5.760000000    -0.756000000    -0.933000000
C    -5.840000000    -2.057000000    -0.771000000
C    -5.162000000    -2.614000000     0.285000000
H    -4.666000000    -1.875000000     0.909000000
C    -6.655000000    -2.816000000    -1.591000000
H    -7.114000000    -2.301000000    -2.431000000
C    -6.831000000    -4.203000000    -1.340000000
H    -7.359000000    -4.842000000    -2.043000000
C    -6.095000000    -4.796000000    -0.325000000
H    -6.209000000    -5.871000000    -0.210000000
C    -5.215000000    -4.007000000     0.458000000
O    -4.704000000    -4.650000000     1.505000000
C    -3.396000000    -4.601000000     1.954000000
C    -3.128000000    -4.626000000     3.299000000
H    -3.899000000    -4.654000000     4.065000000
C    -1.818000000    -4.368000000     3.660000000
O    -1.653000000    -4.006000000     4.969000000
C    -0.385000000    -3.767000000     5.478000000
C    -0.012000000    -2.531000000     5.951000000
H    -0.623000000    -1.643000000     5.818000000
C     0.387000000    -4.849000000     5.854000000
H    -0.014000000    -5.841000000     5.661000000
C     1.655000000    -4.650000000     6.443000000
H     2.205000000    -5.539000000     6.744000000
C     2.109000000    -3.434000000     6.799000000
H     3.065000000    -3.267000000     7.288000000
C     1.257000000    -2.370000000     6.587000000
O     1.600000000    -1.162000000     7.069000000
C     2.085000000    -0.208000000     6.143000000
C     1.966000000     1.126000000     6.372000000
H     1.365000000     1.399000000     7.235000000
C     2.588000000     2.027000000     5.574000000
O     2.322000000     3.351000000     5.858000000
C     1.910000000     4.322000000     4.939000000
C     2.752000000     5.373000000     4.755000000
H     3.657000000     5.578000000     5.321000000
C     2.484000000     6.309000000     3.736000000
H     3.230000000     7.095000000     3.657000000
C     1.379000000     6.157000000     2.894000000
H     1.270000000     6.816000000     2.036000000
C     0.531000000     5.054000000     3.038000000
C     0.844000000     4.168000000     4.049000000
H     0.145000000     3.389000000     4.344000000
C    -2.677000000     1.484000000     0.168000000
H    -3.562000000     2.050000000    -0.111000000
C    -1.579000000     1.338000000    -0.749000000
H    -1.531000000     1.895000000    -1.680000000
C    -0.578000000     0.447000000    -0.438000000
H     0.315000000     0.313000000    -1.020000000
C    -0.605000000    -0.239000000     0.735000000
H     0.200000000    -0.962000000     0.842000000
C    -1.688000000    -0.109000000     1.652000000
H    -1.630000000    -0.618000000     2.611000000
C    -2.764000000     0.707000000     1.362000000
C    -4.042000000     0.799000000     2.186000000
O    -4.248000000     0.094000000     3.119000000
O    -4.788000000     1.797000000     2.002000000
O    -9.354000000    -1.031000000    -2.123000000
H    -8.913000000    -0.516000000    -1.448000000
H    -9.531000000    -1.873000000    -1.705000000
O    -5.751000000     6.529000000     0.464000000
H    -5.453000000     5.937000000     1.155000000
H    -5.084000000     7.215000000     0.434000000
O    -8.634000000    -2.052000000     1.152000000
H    -8.074000000    -1.577000000     1.766000000
H    -8.219000000    -1.920000000     0.299000000
O    -4.937000000    -3.791000000     6.762000000
H    -5.204000000    -3.532000000     5.880000000
H    -4.084000000    -4.208000000     6.641000000
O    -8.364000000     3.180000000    -2.071000000
H    -7.694000000     3.190000000    -1.387000000
H    -9.167000000     3.444000000    -1.622000000
O    -3.451000000    -0.823000000     5.439000000
H    -3.399000000    -1.778000000     5.431000000
H    -3.681000000    -0.588000000     4.540000000
O    -8.012000000     4.061000000     2.333000000
H    -8.490000000     3.234000000     2.271000000
H    -7.188000000     3.830000000     2.762000000
O    -2.925000000     5.761000000     4.543000000
H    -3.098000000     4.915000000     4.957000000
H    -3.743000000     6.247000000     4.640000000
O    -6.606000000     2.805000000     0.419000000
H    -6.649000000     3.567000000     0.997000000
H    -5.755000000     2.409000000     0.608000000
O    -6.494000000     4.220000000     6.244000000
H    -6.767000000     3.626000000     6.943000000
H    -6.630000000     3.721000000     5.438000000
O    -2.906000000     3.195000000     5.671000000
H    -2.582000000     2.462000000     6.194000000
H    -3.450000000     2.786000000     4.997000000
O    -1.718000000     1.042000000     6.745000000
H    -1.379000000     0.475000000     7.438000000
H    -2.239000000     0.460000000     6.192000000
O    -6.326000000    -3.151000000     4.404000000
H    -6.231000000    -3.110000000     3.452000000
H    -7.100000000    -2.620000000     4.591000000
O    -6.314000000     2.404000000     3.998000000
H    -5.771000000     1.987000000     3.329000000
H    -6.749000000     1.675000000     4.441000000
O    -8.635000000    -1.942000000     5.497000000
H    -8.484000000    -1.977000000     6.442000000
H    -9.423000000    -2.468000000     5.361000000
O    -6.570000000    -0.895000000     2.830000000
H    -6.867000000    -0.949000000     3.738000000
H    -5.772000000    -0.368000000     2.870000000
O    -5.121000000     4.654000000     2.226000000
H    -5.291000000     5.043000000     3.084000000
H    -4.815000000     3.769000000     2.421000000
O    -6.443000000     0.309000000     5.880000000
H    -5.514000000     0.082000000     5.860000000
H    -6.757000000    -0.039000000     6.715000000
O    -8.265000000     0.669000000    -0.295000000
H    -7.405000000     1.089000000    -0.326000000
H    -8.820000000     1.293000000     0.173000000
