215
-1474.69564
C    -3.969000000    -0.429000000    -3.502000000
H    -3.639000000    -1.447000000    -3.314000000
C    -3.046000000     0.557000000    -3.951000000
C    -3.454000000     1.919000000    -4.024000000
H    -2.809000000     2.751000000    -4.292000000
C    -1.569000000     0.132000000    -4.103000000
O    -1.469000000    -1.139000000    -4.760000000
H    -1.139000000     0.055000000    -3.093000000
O    -0.985000000     1.142000000    -4.963000000
C     0.237000000     1.566000000    -4.588000000
C     0.259000000     2.723000000    -3.830000000
H    -0.645000000     3.314000000    -3.703000000
C     1.445000000     3.172000000    -3.316000000
O     1.500000000     4.203000000    -2.419000000
C     2.663000000     2.525000000    -3.526000000
C     3.969000000     3.059000000    -2.800000000
H     4.885000000     2.913000000    -3.376000000
C     4.138000000     2.371000000    -1.404000000
C     4.776000000     1.150000000    -1.223000000
H     5.256000000     0.647000000    -2.059000000
H     3.993000000     4.129000000    -2.583000000
C     2.669000000     1.391000000    -4.357000000
H     3.553000000     0.861000000    -4.703000000
C     1.457000000     0.885000000    -4.833000000
C     1.427000000    -0.456000000    -5.549000000
H     2.394000000    -0.556000000    -6.047000000
H     0.683000000    -0.463000000    -6.349000000
C     1.003000000    -1.656000000    -4.702000000
C     1.999000000    -2.371000000    -4.129000000
H     3.032000000    -2.246000000    -4.443000000
C    -0.360000000    -1.979000000    -4.397000000
C    -0.705000000    -3.034000000    -3.569000000
H    -1.762000000    -3.243000000    -3.426000000
C     0.298000000    -3.743000000    -2.921000000
O    -0.052000000    -4.619000000    -1.904000000
C     0.300000000    -4.151000000    -0.569000000
C    -0.785000000    -4.265000000     0.467000000
C    -0.555000000    -5.035000000     1.642000000
H     0.359000000    -5.606000000     1.784000000
C    -2.016000000    -3.602000000     0.334000000
H    -2.190000000    -2.932000000    -0.504000000
O     1.558000000    -4.777000000    -0.139000000
H     0.415000000    -3.059000000    -0.632000000
C     1.656000000    -3.412000000    -3.261000000
C     2.794000000    -4.242000000    -2.686000000
H     3.661000000    -4.396000000    -3.331000000
H     2.387000000    -5.234000000    -2.481000000
C     3.227000000    -3.565000000    -1.332000000
C     4.202000000    -2.548000000    -1.254000000
H     4.687000000    -2.046000000    -2.087000000
C     2.665000000    -3.987000000    -0.162000000
C     3.019000000    -3.465000000     1.095000000
H     2.544000000    -3.811000000     2.010000000
C     3.879000000    -2.447000000     1.091000000
O     4.002000000    -1.746000000     2.266000000
C     3.261000000    -0.485000000     2.510000000
C     2.574000000    -0.533000000     3.834000000
C     2.228000000    -1.697000000     4.497000000
H     2.549000000    -2.693000000     4.202000000
C     2.297000000     0.727000000     4.427000000
H     2.524000000     1.679000000     3.954000000
O     4.169000000     0.630000000     2.362000000
H     2.453000000    -0.410000000     1.766000000
C     4.544000000    -1.995000000    -0.037000000
C     5.500000000    -0.862000000     0.061000000
H     6.141000000    -0.882000000    -0.822000000
H     6.182000000    -0.893000000     0.913000000
C     4.865000000     0.567000000     0.027000000
C     4.281000000     1.182000000     1.136000000
C     3.703000000     2.474000000     0.983000000
H     3.328000000     3.074000000     1.809000000
C     3.546000000     2.981000000    -0.315000000
O     2.706000000     4.054000000    -0.401000000
C     1.475000000     3.769000000    -1.041000000
H     1.348000000     2.682000000    -1.148000000
C     0.435000000     4.436000000    -0.193000000
C    -0.683000000     5.102000000    -0.701000000
H    -0.703000000     5.347000000    -1.760000000
C     0.232000000     3.986000000     1.153000000
H     1.034000000     3.393000000     1.586000000
C    -0.816000000     4.386000000     1.951000000
O    -1.084000000     3.865000000     3.177000000
C    -1.788000000     5.225000000     1.438000000
H    -2.592000000     5.540000000     2.098000000
C    -1.708000000     5.583000000     0.085000000
O    -2.759000000     6.311000000    -0.505000000
C    -3.250000000     6.103000000    -1.772000000
C    -3.784000000     4.874000000    -2.092000000
H    -3.749000000     4.044000000    -1.391000000
C    -3.171000000     7.146000000    -2.745000000
H    -2.724000000     8.084000000    -2.426000000
C    -3.817000000     6.955000000    -3.948000000
H    -3.800000000     7.751000000    -4.688000000
C    -4.374000000     5.727000000    -4.253000000
H    -4.858000000     5.576000000    -5.214000000
C    -4.415000000     4.712000000    -3.336000000
O    -5.166000000     3.553000000    -3.661000000
C    -4.750000000     2.233000000    -3.634000000
C    -5.650000000     1.293000000    -3.192000000
H    -6.634000000     1.671000000    -2.924000000
C    -5.257000000    -0.069000000    -3.080000000
O    -6.147000000    -1.077000000    -2.728000000
C    -5.807000000    -2.083000000    -1.911000000
C    -5.125000000    -1.964000000    -0.673000000
H    -4.822000000    -0.962000000    -0.382000000
C    -6.267000000    -3.381000000    -2.339000000
H    -6.720000000    -3.472000000    -3.323000000
C    -6.105000000    -4.538000000    -1.512000000
H    -6.441000000    -5.511000000    -1.863000000
C    -5.507000000    -4.342000000    -0.290000000
H    -5.275000000    -5.168000000     0.377000000
C    -4.907000000    -3.143000000     0.082000000
O    -4.154000000    -3.038000000     1.248000000
C    -2.944000000    -3.708000000     1.376000000
C    -2.630000000    -4.394000000     2.540000000
H    -3.361000000    -4.351000000     3.344000000
C    -1.472000000    -5.124000000     2.683000000
O    -1.207000000    -5.901000000     3.809000000
C    -0.454000000    -5.575000000     4.986000000
C     0.133000000    -4.316000000     5.158000000
H     0.022000000    -3.545000000     4.399000000
C    -0.194000000    -6.590000000     5.929000000
H    -0.647000000    -7.577000000     5.888000000
C     0.560000000    -6.229000000     7.036000000
H     0.671000000    -6.922000000     7.866000000
C     1.107000000    -4.982000000     7.259000000
H     1.672000000    -4.798000000     8.169000000
C     0.932000000    -3.997000000     6.250000000
O     1.549000000    -2.787000000     6.492000000
C     1.644000000    -1.653000000     5.735000000
C     1.273000000    -0.441000000     6.363000000
H     0.669000000    -0.354000000     7.262000000
C     1.704000000     0.694000000     5.676000000
O     1.618000000     1.884000000     6.433000000
C     1.201000000     3.073000000     5.866000000
C     2.043000000     4.186000000     5.862000000
H     2.967000000     4.271000000     6.428000000
C     1.713000000     5.255000000     5.001000000
H     2.394000000     6.098000000     5.086000000
C     0.623000000     5.200000000     4.105000000
H     0.599000000     5.968000000     3.336000000
C    -0.184000000     4.110000000     4.215000000
C     0.083000000     3.094000000     5.067000000
H    -0.506000000     2.189000000     4.941000000
C    -1.785000000     1.412000000     0.162000000
H    -2.335000000     2.348000000     0.104000000
C    -0.807000000     1.095000000    -0.832000000
H    -0.844000000     1.751000000    -1.698000000
C    -0.032000000    -0.050000000    -0.638000000
H     0.766000000    -0.255000000    -1.412000000
C    -0.075000000    -0.764000000     0.553000000
H     0.769000000    -1.393000000     0.824000000
C    -1.065000000    -0.502000000     1.435000000
H    -1.069000000    -1.103000000     2.340000000
C    -1.898000000     0.615000000     1.299000000
C    -2.934000000     0.916000000     2.318000000
O    -2.858000000     0.459000000     3.378000000
O    -3.932000000     1.546000000     2.005000000
O    -7.728000000    -1.469000000     2.713000000
H    -8.003000000    -2.083000000     2.032000000
H    -7.342000000    -0.736000000     2.234000000
O    -4.572000000     2.142000000     7.645000000
H    -5.155000000     1.534000000     7.190000000
H    -3.691000000     1.864000000     7.392000000
O    -9.207000000    -0.405000000    -0.807000000
H    -8.357000000    -0.774000000    -0.569000000
H    -9.267000000     0.405000000    -0.301000000
O    -7.618000000     3.218000000     1.060000000
H    -7.943000000     3.921000000     1.623000000
H    -6.752000000     3.516000000     0.781000000
O    -2.383000000    -1.820000000     4.753000000
H    -3.104000000    -2.349000000     4.411000000
H    -2.361000000    -1.049000000     4.186000000
O    -6.742000000     6.745000000     0.277000000
H    -5.984000000     6.280000000     0.632000000
H    -6.472000000     7.663000000     0.254000000
O    -5.316000000     5.404000000     2.660000000
H    -5.942000000     5.963000000     3.120000000
H    -4.888000000     4.902000000     3.354000000
O    -2.358000000     4.880000000     6.935000000
H    -3.217000000     4.731000000     7.330000000
H    -1.982000000     4.004000000     6.841000000
O    -4.872000000     3.671000000     0.561000000
H    -4.671000000     4.186000000     1.343000000
H    -4.680000000     2.768000000     0.813000000
O    -6.548000000     3.859000000     5.426000000
H    -5.699000000     3.736000000     5.001000000
H    -7.185000000     3.789000000     4.715000000
O    -2.557000000     0.655000000     6.490000000
H    -2.189000000    -0.144000000     6.868000000
H    -2.591000000     0.481000000     5.549000000
O    -1.672000000    -1.902000000     7.456000000
H    -1.486000000    -1.912000000     6.517000000
H    -2.174000000    -2.702000000     7.609000000
O    -5.726000000    -4.087000000     6.249000000
H    -5.678000000    -3.601000000     5.426000000
H    -6.629000000    -3.971000000     6.544000000
O    -5.173000000     0.063000000     4.194000000
H    -5.712000000     0.649000000     3.664000000
H    -4.279000000     0.220000000     3.891000000
O    -2.877000000     6.910000000     4.714000000
H    -3.662000000     7.317000000     5.080000000
H    -2.812000000     6.068000000     5.164000000
O    -5.217000000    -2.583000000     4.077000000
H    -5.111000000    -1.633000000     4.117000000
H    -5.468000000    -2.758000000     3.170000000
O    -6.170000000    -0.243000000     6.968000000
H    -5.696000000    -0.219000000     6.137000000
H    -5.915000000    -1.076000000     7.365000000
O    -6.282000000     0.842000000     1.535000000
H    -6.740000000     1.663000000     1.358000000
H    -5.394000000     1.108000000     1.772000000
O    -4.094000000     3.459000000     4.074000000
H    -4.285000000     2.799000000     3.408000000
H    -3.143000000     3.569000000     4.037000000
