215
-1458.89041
C    -3.934000000     0.156000000    -3.424000000
H    -3.647000000    -0.830000000    -3.779000000
C    -2.954000000     1.160000000    -3.542000000
C    -3.297000000     2.507000000    -3.508000000
H    -2.541000000     3.267000000    -3.687000000
C    -1.521000000     0.780000000    -3.866000000
O    -1.452000000    -0.551000000    -4.506000000
H    -0.954000000     0.738000000    -2.924000000
O    -0.867000000     1.714000000    -4.766000000
C     0.379000000     2.090000000    -4.356000000
C     0.513000000     3.141000000    -3.445000000
H    -0.396000000     3.709000000    -3.260000000
C     1.731000000     3.403000000    -2.857000000
O     1.830000000     4.316000000    -1.787000000
C     2.831000000     2.555000000    -3.077000000
C     4.189000000     2.730000000    -2.371000000
H     4.903000000     2.438000000    -3.144000000
C     4.372000000     2.006000000    -1.076000000
C     5.016000000     0.767000000    -0.889000000
H     5.495000000     0.299000000    -1.744000000
H     4.383000000     3.766000000    -2.087000000
C     2.647000000     1.458000000    -3.894000000
H     3.404000000     0.691000000    -4.034000000
C     1.453000000     1.247000000    -4.552000000
C     1.354000000     0.038000000    -5.431000000
H     2.324000000    -0.216000000    -5.862000000
H     0.628000000     0.209000000    -6.228000000
C     0.925000000    -1.121000000    -4.618000000
C     1.871000000    -2.104000000    -4.279000000
H     2.899000000    -2.035000000    -4.623000000
C    -0.392000000    -1.397000000    -4.264000000
C    -0.702000000    -2.441000000    -3.460000000
H    -1.770000000    -2.490000000    -3.266000000
C     0.272000000    -3.347000000    -3.028000000
O    -0.203000000    -4.358000000    -2.210000000
C     0.112000000    -4.252000000    -0.776000000
C    -1.057000000    -4.584000000     0.130000000
C    -0.867000000    -4.928000000     1.474000000
H     0.165000000    -5.142000000     1.742000000
C    -2.368000000    -4.298000000    -0.307000000
H    -2.493000000    -3.783000000    -1.257000000
O     1.340000000    -4.988000000    -0.504000000
H     0.441000000    -3.227000000    -0.546000000
C     1.576000000    -3.206000000    -3.420000000
C     2.697000000    -4.129000000    -2.820000000
H     3.617000000    -3.984000000    -3.391000000
H     2.397000000    -5.175000000    -2.908000000
C     3.139000000    -3.682000000    -1.423000000
C     4.259000000    -2.820000000    -1.226000000
H     4.652000000    -2.331000000    -2.113000000
C     2.478000000    -4.267000000    -0.325000000
C     2.842000000    -3.903000000     0.923000000
H     2.213000000    -4.369000000     1.678000000
C     3.811000000    -2.888000000     1.157000000
O     3.940000000    -2.369000000     2.424000000
C     3.292000000    -1.070000000     2.643000000
C     2.587000000    -0.997000000     4.010000000
C     2.174000000    -2.131000000     4.709000000
H     2.372000000    -3.113000000     4.286000000
C     2.407000000     0.269000000     4.633000000
H     2.558000000     1.241000000     4.171000000
O     4.208000000     0.054000000     2.555000000
H     2.523000000    -0.946000000     1.867000000
C     4.544000000    -2.392000000     0.092000000
C     5.633000000    -1.287000000     0.255000000
H     6.447000000    -1.435000000    -0.458000000
H     6.192000000    -1.536000000     1.159000000
C     5.017000000     0.046000000     0.295000000
C     4.445000000     0.675000000     1.392000000
C     3.782000000     1.899000000     1.263000000
H     3.460000000     2.515000000     2.099000000
C     3.724000000     2.575000000    -0.002000000
O     3.045000000     3.770000000     0.004000000
C     1.738000000     3.710000000    -0.552000000
H     1.378000000     2.680000000    -0.694000000
C     0.580000000     4.414000000     0.168000000
C    -0.324000000     5.230000000    -0.469000000
H    -0.212000000     5.436000000    -1.531000000
C     0.281000000     3.941000000     1.502000000
H     1.002000000     3.243000000     1.920000000
C    -0.812000000     4.375000000     2.209000000
O    -1.058000000     4.051000000     3.481000000
C    -1.592000000     5.367000000     1.630000000
H    -2.487000000     5.566000000     2.213000000
C    -1.404000000     5.654000000     0.243000000
O    -2.292000000     6.567000000    -0.259000000
C    -2.990000000     6.386000000    -1.461000000
C    -3.692000000     5.240000000    -1.758000000
H    -3.686000000     4.300000000    -1.212000000
C    -3.042000000     7.451000000    -2.425000000
H    -2.458000000     8.363000000    -2.332000000
C    -3.788000000     7.352000000    -3.634000000
H    -3.868000000     8.122000000    -4.397000000
C    -4.575000000     6.215000000    -3.891000000
H    -5.279000000     6.135000000    -4.715000000
C    -4.529000000     5.225000000    -2.888000000
O    -5.204000000     4.098000000    -3.181000000
C    -4.652000000     2.816000000    -3.140000000
C    -5.574000000     1.828000000    -2.973000000
H    -6.624000000     2.070000000    -2.833000000
C    -5.199000000     0.480000000    -3.064000000
O    -6.224000000    -0.453000000    -2.848000000
C    -5.977000000    -1.753000000    -2.456000000
C    -5.343000000    -2.007000000    -1.261000000
H    -5.098000000    -1.168000000    -0.615000000
C    -6.319000000    -2.756000000    -3.320000000
H    -6.689000000    -2.493000000    -4.308000000
C    -6.068000000    -4.114000000    -2.937000000
H    -6.302000000    -4.957000000    -3.581000000
C    -5.310000000    -4.351000000    -1.788000000
H    -5.008000000    -5.355000000    -1.501000000
C    -5.008000000    -3.301000000    -0.929000000
O    -4.607000000    -3.652000000     0.330000000
C    -3.404000000    -4.314000000     0.619000000
C    -3.211000000    -4.762000000     1.946000000
H    -4.044000000    -4.726000000     2.643000000
C    -1.948000000    -5.127000000     2.322000000
O    -1.768000000    -5.433000000     3.675000000
C    -0.645000000    -5.366000000     4.382000000
C    -0.301000000    -4.219000000     5.009000000
H    -0.792000000    -3.281000000     4.763000000
C    -0.148000000    -6.553000000     4.814000000
H    -0.563000000    -7.479000000     4.424000000
C     0.769000000    -6.644000000     5.851000000
H     1.088000000    -7.627000000     6.190000000
C     1.174000000    -5.431000000     6.438000000
H     1.825000000    -5.389000000     7.308000000
C     0.737000000    -4.252000000     5.911000000
O     1.024000000    -3.129000000     6.566000000
C     1.501000000    -2.027000000     5.900000000
C     1.463000000    -0.847000000     6.516000000
H     0.881000000    -0.870000000     7.435000000
C     1.878000000     0.331000000     5.967000000
O     1.553000000     1.537000000     6.534000000
C     1.272000000     2.731000000     5.951000000
C     2.057000000     3.811000000     6.250000000
H     2.839000000     3.770000000     7.004000000
C     1.725000000     5.096000000     5.765000000
H     2.308000000     5.967000000     6.053000000
C     0.619000000     5.225000000     4.884000000
H     0.418000000     6.108000000     4.283000000
C    -0.062000000     4.078000000     4.442000000
C     0.278000000     2.842000000     4.987000000
H    -0.312000000     1.969000000     4.722000000
C    -2.153000000     0.533000000     0.355000000
H    -2.882000000     1.250000000    -0.015000000
C    -0.910000000     0.402000000    -0.281000000
H    -0.540000000     1.052000000    -1.070000000
C     0.027000000    -0.499000000     0.169000000
H     1.030000000    -0.646000000    -0.380000000
C    -0.297000000    -1.391000000     1.165000000
H     0.446000000    -2.118000000     1.481000000
C    -1.529000000    -1.372000000     1.760000000
H    -1.848000000    -2.156000000     2.443000000
C    -2.473000000    -0.421000000     1.360000000
C    -3.916000000    -0.402000000     2.016000000
O    -4.203000000    -1.189000000     2.874000000
O    -4.687000000     0.503000000     1.771000000
O    -5.943000000     5.083000000     0.824000000
H    -5.127000000     4.612000000     0.995000000
H    -6.032000000     5.684000000     1.563000000
O    -6.923000000    -1.700000000     1.698000000
H    -5.990000000    -1.725000000     1.911000000
H    -7.354000000    -1.509000000     2.531000000
O    -4.197000000     0.109000000     7.781000000
H    -4.127000000     0.226000000     8.729000000
H    -3.475000000     0.625000000     7.423000000
O    -8.775000000    -1.482000000    -0.130000000
H    -8.457000000    -1.692000000    -1.008000000
H    -8.027000000    -1.650000000     0.442000000
O    -8.166000000     3.620000000     1.034000000
H    -7.471000000     4.259000000     1.194000000
H    -7.734000000     2.912000000     0.556000000
O    -2.402000000    -0.230000000     4.932000000
H    -2.072000000    -1.098000000     5.167000000
H    -3.107000000    -0.403000000     4.308000000
O    -3.821000000     3.060000000     1.949000000
H    -4.296000000     2.236000000     1.840000000
H    -2.898000000     2.811000000     1.906000000
O    -8.523000000    -1.090000000     4.054000000
H    -8.374000000    -0.176000000     3.813000000
H    -9.457000000    -1.133000000     4.261000000
O    -8.898000000     2.002000000     3.235000000
H    -9.011000000     2.621000000     2.514000000
H    -7.971000000     1.768000000     3.207000000
O    -3.733000000    -4.557000000     6.702000000
H    -4.132000000    -4.130000000     7.461000000
H    -4.102000000    -4.098000000     5.948000000
O    -5.610000000     3.401000000     4.408000000
H    -6.013000000     2.579000000     4.127000000
H    -4.927000000     3.567000000     3.759000000
O    -4.443000000    -3.073000000     4.564000000
H    -4.200000000    -2.539000000     3.808000000
H    -4.958000000    -2.485000000     5.117000000
O    -5.875000000    -1.176000000     5.805000000
H    -5.465000000    -0.788000000     6.578000000
H    -6.586000000    -1.714000000     6.156000000
O    -7.411000000     0.939000000    -0.053000000
H    -8.011000000     0.195000000    -0.003000000
H    -6.669000000     0.686000000     0.496000000
O    -3.220000000     2.244000000     6.006000000
H    -2.737000000     1.589000000     5.503000000
H    -4.104000000     2.222000000     5.642000000
O    -6.364000000     0.814000000     3.810000000
H    -5.759000000     0.540000000     3.120000000
H    -6.357000000     0.090000000     4.436000000
O    -9.638000000    -3.802000000     3.411000000
H   -10.194000000    -3.715000000     4.185000000
H    -8.953000000    -3.145000000     3.533000000
O    -7.428000000    -5.230000000     1.870000000
H    -8.313000000    -5.400000000     1.547000000
H    -7.224000000    -4.349000000     1.557000000
O    -6.512000000    -4.869000000     5.364000000
H    -6.053000000    -4.317000000     4.730000000
H    -6.783000000    -5.637000000     4.861000000
