215
-1449.90469
C    -3.884000000    -0.218000000    -3.396000000
H    -3.506000000    -1.233000000    -3.311000000
C    -2.920000000     0.731000000    -3.881000000
C    -3.395000000     1.969000000    -4.235000000
H    -2.700000000     2.705000000    -4.630000000
C    -1.491000000     0.266000000    -4.087000000
O    -1.409000000    -1.097000000    -4.538000000
H    -0.998000000     0.372000000    -3.109000000
O    -0.867000000     1.099000000    -5.002000000
C     0.405000000     1.638000000    -4.725000000
C     0.533000000     2.873000000    -3.995000000
H    -0.363000000     3.483000000    -3.927000000
C     1.668000000     3.164000000    -3.361000000
O     1.581000000     4.134000000    -2.324000000
C     2.811000000     2.412000000    -3.567000000
C     4.048000000     2.802000000    -2.867000000
H     4.917000000     2.403000000    -3.394000000
C     4.092000000     2.235000000    -1.430000000
C     4.703000000     1.006000000    -1.243000000
H     5.091000000     0.488000000    -2.117000000
H     4.134000000     3.891000000    -2.854000000
C     2.729000000     1.225000000    -4.296000000
H     3.571000000     0.539000000    -4.252000000
C     1.493000000     0.780000000    -4.793000000
C     1.361000000    -0.590000000    -5.443000000
H     2.336000000    -0.869000000    -5.850000000
H     0.620000000    -0.616000000    -6.244000000
C     0.944000000    -1.750000000    -4.511000000
C     1.933000000    -2.502000000    -3.920000000
H     2.954000000    -2.291000000    -4.228000000
C    -0.355000000    -1.880000000    -4.084000000
C    -0.681000000    -2.883000000    -3.206000000
H    -1.736000000    -2.968000000    -2.961000000
C     0.237000000    -3.736000000    -2.660000000
O    -0.239000000    -4.491000000    -1.626000000
C     0.170000000    -4.176000000    -0.307000000
C    -1.035000000    -4.184000000     0.630000000
C    -0.832000000    -4.515000000     1.971000000
H     0.186000000    -4.783000000     2.242000000
C    -2.335000000    -3.988000000     0.140000000
H    -2.522000000    -3.927000000    -0.929000000
O     1.385000000    -4.940000000     0.099000000
H     0.469000000    -3.118000000    -0.292000000
C     1.578000000    -3.558000000    -3.026000000
C     2.693000000    -4.458000000    -2.366000000
H     3.536000000    -4.556000000    -3.054000000
H     2.355000000    -5.476000000    -2.163000000
C     3.111000000    -3.841000000    -1.022000000
C     4.105000000    -2.807000000    -1.067000000
H     4.621000000    -2.565000000    -1.992000000
C     2.482000000    -4.176000000     0.194000000
C     2.856000000    -3.517000000     1.312000000
H     2.355000000    -3.808000000     2.232000000
C     3.879000000    -2.547000000     1.321000000
O     4.138000000    -1.932000000     2.486000000
C     3.513000000    -0.609000000     2.810000000
C     3.010000000    -0.499000000     4.256000000
C     2.550000000    -1.621000000     4.897000000
H     2.589000000    -2.615000000     4.458000000
C     2.965000000     0.751000000     4.819000000
H     3.399000000     1.631000000     4.352000000
O     4.339000000     0.534000000     2.394000000
H     2.602000000    -0.436000000     2.220000000
C     4.389000000    -2.087000000     0.106000000
C     5.441000000    -0.949000000     0.115000000
H     6.275000000    -1.026000000    -0.586000000
H     5.890000000    -1.031000000     1.107000000
C     4.850000000     0.401000000    -0.012000000
C     4.438000000     1.126000000     1.155000000
C     3.821000000     2.367000000     1.000000000
H     3.317000000     2.787000000     1.866000000
C     3.608000000     2.887000000    -0.251000000
O     2.635000000     3.878000000    -0.260000000
C     1.388000000     3.620000000    -0.981000000
H     1.201000000     2.536000000    -1.000000000
C     0.295000000     4.188000000    -0.118000000
C    -0.811000000     4.738000000    -0.735000000
H    -0.857000000     4.794000000    -1.819000000
C     0.212000000     3.938000000     1.272000000
H     1.046000000     3.391000000     1.706000000
C    -0.858000000     4.316000000     2.027000000
O    -1.018000000     3.903000000     3.265000000
C    -1.963000000     4.840000000     1.410000000
H    -2.800000000     4.993000000     2.087000000
C    -1.925000000     5.144000000     0.025000000
O    -3.098000000     5.712000000    -0.448000000
C    -3.440000000     5.854000000    -1.744000000
C    -3.960000000     4.689000000    -2.388000000
H    -3.856000000     3.734000000    -1.881000000
C    -3.540000000     7.055000000    -2.338000000
H    -3.195000000     7.972000000    -1.867000000
C    -4.160000000     7.121000000    -3.626000000
H    -4.293000000     8.095000000    -4.089000000
C    -4.631000000     6.033000000    -4.268000000
H    -5.067000000     6.164000000    -5.255000000
C    -4.469000000     4.774000000    -3.665000000
O    -5.044000000     3.698000000    -4.224000000
C    -4.671000000     2.373000000    -3.986000000
C    -5.607000000     1.484000000    -3.438000000
H    -6.670000000     1.696000000    -3.369000000
C    -5.209000000     0.177000000    -3.107000000
O    -6.207000000    -0.650000000    -2.654000000
C    -5.935000000    -1.914000000    -2.265000000
C    -5.284000000    -2.084000000    -1.022000000
H    -4.953000000    -1.238000000    -0.424000000
C    -6.423000000    -3.035000000    -2.934000000
H    -6.928000000    -2.818000000    -3.872000000
C    -6.258000000    -4.325000000    -2.416000000
H    -6.723000000    -5.208000000    -2.847000000
C    -5.531000000    -4.511000000    -1.230000000
H    -5.466000000    -5.519000000    -0.829000000
C    -5.099000000    -3.392000000    -0.535000000
O    -4.659000000    -3.587000000     0.726000000
C    -3.388000000    -3.949000000     1.060000000
C    -3.157000000    -4.257000000     2.377000000
H    -3.997000000    -4.415000000     3.048000000
C    -1.933000000    -4.639000000     2.885000000
O    -1.815000000    -4.805000000     4.271000000
C    -0.651000000    -4.943000000     5.040000000
C    -0.184000000    -3.777000000     5.691000000
H    -0.766000000    -2.861000000     5.626000000
C     0.124000000    -6.095000000     5.043000000
H    -0.145000000    -6.987000000     4.482000000
C     1.329000000    -6.036000000     5.704000000
H     1.967000000    -6.916000000     5.672000000
C     1.837000000    -4.876000000     6.234000000
H     2.789000000    -4.775000000     6.749000000
C     1.065000000    -3.751000000     6.256000000
O     1.535000000    -2.630000000     6.848000000
C     1.966000000    -1.511000000     6.146000000
C     1.914000000    -0.234000000     6.737000000
H     1.437000000    -0.073000000     7.701000000
C     2.360000000     0.858000000     6.042000000
O     2.048000000     2.058000000     6.590000000
C     1.494000000     3.106000000     5.864000000
C     2.131000000     4.352000000     6.013000000
H     2.998000000     4.468000000     6.659000000
C     1.597000000     5.452000000     5.408000000
H     2.012000000     6.443000000     5.573000000
C     0.559000000     5.301000000     4.480000000
H     0.212000000     6.213000000     4.000000000
C     0.015000000     4.034000000     4.231000000
C     0.513000000     2.926000000     4.884000000
H     0.177000000     1.896000000     4.791000000
C    -2.189000000     1.423000000     0.312000000
H    -3.069000000     2.009000000     0.063000000
C    -1.168000000     1.268000000    -0.593000000
H    -1.101000000     1.889000000    -1.482000000
C    -0.098000000     0.362000000    -0.376000000
H     0.731000000     0.238000000    -1.040000000
C    -0.085000000    -0.348000000     0.862000000
H     0.754000000    -0.983000000     1.134000000
C    -1.198000000    -0.203000000     1.734000000
H    -1.199000000    -0.822000000     2.627000000
C    -2.221000000     0.642000000     1.520000000
C    -3.490000000     0.629000000     2.398000000
O    -3.283000000     0.433000000     3.588000000
O    -4.593000000     0.781000000     1.949000000
O    -6.393000000    -1.132000000     2.192000000
H    -6.155000000    -1.711000000     2.917000000
H    -5.751000000    -0.423000000     2.231000000
O    -7.767000000    -3.688000000     1.580000000
H    -7.545000000    -4.617000000     1.633000000
H    -6.935000000    -3.253000000     1.391000000
O    -8.299000000     0.416000000     1.274000000
H    -7.679000000    -0.193000000     1.674000000
H    -8.783000000    -0.115000000     0.642000000
O    -7.317000000     3.709000000    -2.003000000
H    -7.155000000     4.600000000    -1.693000000
H    -6.916000000     3.148000000    -1.339000000
O    -2.432000000     1.717000000     5.830000000
H    -2.620000000     1.071000000     5.149000000
H    -2.766000000     2.542000000     5.478000000
O    -8.569000000     0.486000000     6.358000000
H    -8.201000000    -0.369000000     6.135000000
H    -9.505000000     0.398000000     6.180000000
O    -1.967000000     5.356000000     6.782000000
H    -1.834000000     4.447000000     7.049000000
H    -2.872000000     5.547000000     7.026000000
O    -5.636000000     3.210000000     2.810000000
H    -6.073000000     3.208000000     1.958000000
H    -5.133000000     2.397000000     2.823000000
O    -8.162000000     3.019000000     4.512000000
H    -7.266000000     3.011000000     4.176000000
H    -8.125000000     2.484000000     5.305000000
O    -2.588000000     2.852000000     8.257000000
H    -2.292000000     2.295000000     7.537000000
H    -3.486000000     3.088000000     8.023000000
O    -2.331000000    -1.070000000     8.285000000
H    -2.440000000    -2.018000000     8.213000000
H    -3.144000000    -0.766000000     8.687000000
O    -3.540000000    -1.757000000     5.107000000
H    -3.355000000    -1.062000000     4.475000000
H    -4.010000000    -1.317000000     5.816000000
O    -5.766000000    -1.702000000     7.675000000
H    -6.692000000    -1.745000000     7.437000000
H    -5.707000000    -2.185000000     8.499000000
O    -5.188000000     2.571000000     7.104000000
H    -5.265000000     2.288000000     6.193000000
H    -5.975000000     2.228000000     7.528000000
O    -6.404000000     1.995000000     0.398000000
H    -7.136000000     1.582000000     0.857000000
H    -5.626000000     1.562000000     0.749000000
O    -4.693000000     4.762000000     5.041000000
H    -5.273000000     4.088000000     4.685000000
H    -4.071000000     4.940000000     4.335000000
O    -5.828000000     1.061000000     4.834000000
H    -5.044000000     0.901000000     4.308000000
H    -6.339000000     0.256000000     4.754000000
O    -5.912000000    -2.721000000     4.340000000
H    -5.055000000    -2.715000000     4.766000000
H    -6.536000000    -2.599000000     5.056000000
O    -4.110000000    -4.602000000     6.047000000
H    -3.764000000    -3.822000000     5.614000000
H    -3.435000000    -5.268000000     5.915000000
