215
-1461.19768
C    -4.320000000    -0.394000000    -4.152000000
H    -4.146000000    -1.466000000    -4.198000000
C    -3.321000000     0.497000000    -4.481000000
C    -3.678000000     1.831000000    -4.711000000
H    -2.862000000     2.538000000    -4.842000000
C    -1.887000000     0.117000000    -4.398000000
O    -1.625000000    -1.074000000    -5.070000000
H    -1.681000000     0.044000000    -3.320000000
O    -0.973000000     1.149000000    -4.941000000
C     0.296000000     1.455000000    -4.448000000
C     0.452000000     2.574000000    -3.645000000
H    -0.328000000     3.262000000    -3.329000000
C     1.652000000     2.767000000    -3.009000000
O     1.709000000     3.849000000    -2.113000000
C     2.762000000     1.964000000    -3.330000000
C     4.121000000     2.365000000    -2.715000000
H     4.832000000     1.889000000    -3.393000000
C     4.410000000     1.910000000    -1.272000000
C     4.905000000     0.582000000    -1.166000000
H     5.120000000     0.077000000    -2.104000000
H     4.321000000     3.430000000    -2.855000000
C     2.643000000     0.958000000    -4.338000000
H     3.508000000     0.346000000    -4.580000000
C     1.362000000     0.607000000    -4.783000000
C     1.221000000    -0.593000000    -5.666000000
H     2.104000000    -0.953000000    -6.199000000
H     0.406000000    -0.385000000    -6.362000000
C     0.749000000    -1.708000000    -4.738000000
C     1.645000000    -2.334000000    -3.927000000
H     2.684000000    -2.062000000    -4.096000000
C    -0.633000000    -1.861000000    -4.459000000
C    -1.007000000    -2.685000000    -3.406000000
H    -2.052000000    -2.861000000    -3.160000000
C    -0.087000000    -3.566000000    -2.791000000
O    -0.541000000    -4.370000000    -1.738000000
C    -0.164000000    -3.944000000    -0.383000000
C    -1.366000000    -3.776000000     0.555000000
C    -1.294000000    -4.096000000     1.944000000
H    -0.441000000    -4.628000000     2.359000000
C    -2.447000000    -3.044000000     0.090000000
H    -2.412000000    -2.699000000    -0.940000000
O     0.892000000    -4.713000000     0.240000000
H     0.122000000    -2.899000000    -0.569000000
C     1.227000000    -3.420000000    -3.082000000
C     2.228000000    -4.372000000    -2.392000000
H     3.098000000    -4.295000000    -3.047000000
H     1.877000000    -5.404000000    -2.334000000
C     2.687000000    -3.761000000    -1.042000000
C     3.873000000    -2.941000000    -1.036000000
H     4.325000000    -2.571000000    -1.953000000
C     2.067000000    -4.051000000     0.173000000
C     2.640000000    -3.570000000     1.398000000
H     2.060000000    -3.887000000     2.262000000
C     3.678000000    -2.767000000     1.407000000
O     4.122000000    -2.222000000     2.580000000
C     3.655000000    -0.904000000     2.854000000
C     3.202000000    -0.797000000     4.298000000
C     2.735000000    -1.863000000     4.999000000
H     2.622000000    -2.833000000     4.522000000
C     3.087000000     0.479000000     4.804000000
H     3.336000000     1.353000000     4.207000000
O     4.642000000     0.185000000     2.516000000
H     2.724000000    -0.778000000     2.282000000
C     4.322000000    -2.424000000     0.185000000
C     5.445000000    -1.436000000     0.092000000
H     6.086000000    -1.690000000    -0.754000000
H     6.038000000    -1.566000000     1.000000000
C     4.907000000    -0.042000000     0.067000000
C     4.544000000     0.664000000     1.236000000
C     4.024000000     1.950000000     1.120000000
H     3.775000000     2.512000000     2.017000000
C     3.994000000     2.556000000    -0.167000000
O     3.187000000     3.727000000    -0.231000000
C     1.795000000     3.494000000    -0.726000000
H     1.631000000     2.407000000    -0.758000000
C     0.653000000     4.011000000     0.150000000
C    -0.588000000     4.331000000    -0.469000000
H    -0.678000000     4.416000000    -1.549000000
C     0.700000000     3.908000000     1.552000000
H     1.608000000     3.631000000     2.080000000
C    -0.423000000     4.169000000     2.303000000
O    -0.471000000     3.971000000     3.695000000
C    -1.638000000     4.560000000     1.719000000
H    -2.507000000     4.717000000     2.353000000
C    -1.711000000     4.625000000     0.327000000
O    -2.963000000     4.949000000    -0.253000000
C    -3.135000000     5.182000000    -1.636000000
C    -3.787000000     4.174000000    -2.421000000
H    -3.938000000     3.180000000    -2.007000000
C    -3.055000000     6.493000000    -2.122000000
H    -2.623000000     7.314000000    -1.556000000
C    -3.532000000     6.805000000    -3.347000000
H    -3.546000000     7.816000000    -3.747000000
C    -4.068000000     5.832000000    -4.138000000
H    -4.553000000     6.056000000    -5.085000000
C    -4.307000000     4.549000000    -3.645000000
O    -5.170000000     3.681000000    -4.308000000
C    -4.933000000     2.300000000    -4.469000000
C    -5.886000000     1.388000000    -4.059000000
H    -6.858000000     1.830000000    -3.855000000
C    -5.625000000     0.041000000    -3.963000000
O    -6.610000000    -0.691000000    -3.399000000
C    -6.337000000    -1.549000000    -2.378000000
C    -5.623000000    -1.121000000    -1.280000000
H    -5.618000000    -0.075000000    -0.984000000
C    -6.657000000    -2.850000000    -2.728000000
H    -7.245000000    -3.085000000    -3.612000000
C    -6.104000000    -3.854000000    -1.896000000
H    -6.266000000    -4.899000000    -2.149000000
C    -5.409000000    -3.514000000    -0.712000000
H    -5.235000000    -4.245000000     0.074000000
C    -5.162000000    -2.163000000    -0.471000000
O    -4.540000000    -1.916000000     0.774000000
C    -3.383000000    -2.565000000     1.003000000
C    -3.269000000    -2.851000000     2.370000000
H    -4.080000000    -2.574000000     3.038000000
C    -2.211000000    -3.582000000     2.853000000
O    -2.159000000    -3.892000000     4.214000000
C    -1.024000000    -4.294000000     4.824000000
C    -0.257000000    -3.324000000     5.527000000
H    -0.563000000    -2.283000000     5.465000000
C    -0.539000000    -5.626000000     4.699000000
H    -1.121000000    -6.381000000     4.176000000
C     0.692000000    -5.931000000     5.279000000
H     1.117000000    -6.913000000     5.088000000
C     1.392000000    -4.999000000     6.076000000
H     2.344000000    -5.321000000     6.491000000
C     0.950000000    -3.683000000     6.134000000
O     1.708000000    -2.780000000     6.837000000
C     2.231000000    -1.655000000     6.273000000
C     2.284000000    -0.423000000     6.937000000
H     1.886000000    -0.335000000     7.945000000
C     2.694000000     0.676000000     6.167000000
O     2.532000000     1.907000000     6.712000000
C     2.142000000     2.976000000     5.944000000
C     2.852000000     4.173000000     6.083000000
H     3.736000000     4.275000000     6.707000000
C     2.408000000     5.275000000     5.408000000
H     2.899000000     6.232000000     5.566000000
C     1.396000000     5.166000000     4.511000000
H     1.202000000     5.963000000     3.798000000
C     0.623000000     3.995000000     4.443000000
C     0.877000000     2.923000000     5.273000000
H     0.235000000     2.047000000     5.282000000
C    -1.546000000     1.030000000     0.738000000
H    -2.160000000     1.775000000     0.238000000
C    -0.447000000     0.662000000     0.053000000
H    -0.205000000     1.007000000    -0.949000000
C     0.476000000    -0.240000000     0.657000000
H     1.337000000    -0.564000000     0.213000000
C     0.142000000    -0.811000000     1.867000000
H     0.825000000    -1.389000000     2.483000000
C    -0.978000000    -0.393000000     2.579000000
H    -1.215000000    -0.834000000     3.543000000
C    -1.872000000     0.532000000     1.993000000
C    -3.135000000     0.894000000     2.743000000
O    -3.433000000     0.385000000     3.788000000
O    -3.770000000     1.838000000     2.250000000
O    -6.135000000     2.255000000     1.296000000
H    -6.092000000     2.806000000     0.514000000
H    -5.232000000     2.216000000     1.611000000
O    -7.999000000    -0.010000000     0.780000000
H    -8.712000000     0.584000000     1.012000000
H    -7.219000000     0.545000000     0.766000000
O    -2.797000000    -1.614000000     5.733000000
H    -2.697000000    -0.980000000     5.023000000
H    -3.741000000    -1.652000000     5.890000000
O    -3.228000000     2.203000000     5.832000000
H    -3.195000000     1.476000000     5.210000000
H    -3.782000000     1.884000000     6.544000000
O    -5.946000000     3.345000000     7.973000000
H    -6.107000000     3.563000000     8.891000000
H    -5.452000000     2.525000000     8.005000000
O    -2.604000000     5.081000000     5.065000000
H    -2.823000000     4.197000000     5.359000000
H    -1.817000000     4.968000000     4.532000000
O    -4.840000000     4.019000000     3.493000000
H    -4.167000000     4.619000000     3.816000000
H    -4.349000000     3.291000000     3.113000000
O    -7.903000000     3.266000000     3.323000000
H    -7.753000000     4.024000000     3.888000000
H    -7.034000000     3.038000000     2.992000000
O    -0.487000000     1.705000000     8.483000000
H     0.223000000     1.795000000     7.847000000
H    -0.964000000     2.533000000     8.427000000
O    -1.372000000     4.244000000     7.772000000
H    -1.493000000     4.954000000     7.141000000
H    -0.855000000     4.635000000     8.476000000
O    -3.070000000    -3.974000000     7.794000000
H    -3.040000000    -3.393000000     7.033000000
H    -2.176000000    -3.968000000     8.136000000
O    -6.845000000    -2.491000000     2.729000000
H    -6.660000000    -1.753000000     3.310000000
H    -6.164000000    -2.443000000     2.058000000
O    -5.534000000    -1.282000000     6.398000000
H    -6.219000000    -1.580000000     6.997000000
H    -6.006000000    -1.010000000     5.611000000
O    -4.406000000     0.744000000     7.955000000
H    -4.832000000    -0.044000000     7.616000000
H    -4.052000000     0.478000000     8.804000000
O    -6.538000000     4.606000000     5.558000000
H    -6.173000000     4.376000000     6.412000000
H    -5.961000000     4.175000000     4.927000000
O    -6.032000000     0.351000000     3.667000000
H    -5.093000000     0.533000000     3.637000000
H    -6.407000000     0.914000000     2.990000000
O    -0.986000000    -1.169000000     8.176000000
H    -1.529000000    -1.424000000     7.430000000
H    -0.934000000    -0.215000000     8.119000000
O    -7.535000000     4.799000000     0.637000000
H    -7.460000000     4.305000000     1.453000000
H    -8.420000000     4.612000000     0.323000000
O    -8.854000000    -1.149000000     5.344000000
H    -9.294000000    -1.997000000     5.405000000
H    -8.486000000    -1.133000000     4.461000000
