215
-1469.67914
C    -2.893000000     1.252000000    -4.478000000
H    -3.353000000     0.302000000    -4.220000000
C    -1.489000000     1.424000000    -4.551000000
C    -0.942000000     2.683000000    -4.622000000
H     0.133000000     2.783000000    -4.741000000
C    -0.667000000     0.170000000    -4.391000000
O    -1.393000000    -0.975000000    -4.815000000
H    -0.449000000     0.037000000    -3.321000000
O     0.594000000     0.327000000    -5.038000000
C     1.655000000    -0.180000000    -4.312000000
C     2.468000000     0.738000000    -3.653000000
H     2.357000000     1.814000000    -3.758000000
C     3.508000000     0.254000000    -2.843000000
O     4.250000000     1.157000000    -2.150000000
C     3.738000000    -1.141000000    -2.635000000
C     4.956000000    -1.608000000    -1.775000000
H     5.261000000    -2.561000000    -2.212000000
C     4.713000000    -1.708000000    -0.262000000
C     4.228000000    -2.935000000     0.240000000
H     4.262000000    -3.854000000    -0.340000000
H     5.763000000    -0.894000000    -1.954000000
C     2.896000000    -2.053000000    -3.333000000
H     3.017000000    -3.116000000    -3.144000000
C     1.861000000    -1.611000000    -4.139000000
C     0.976000000    -2.649000000    -4.800000000
H     1.616000000    -3.519000000    -4.961000000
H     0.743000000    -2.200000000    -5.768000000
C    -0.187000000    -2.934000000    -3.928000000
C    -0.025000000    -3.949000000    -3.011000000
H     0.843000000    -4.603000000    -3.040000000
C    -1.355000000    -2.121000000    -3.951000000
C    -2.473000000    -2.419000000    -3.064000000
H    -3.338000000    -1.779000000    -2.909000000
C    -2.266000000    -3.481000000    -2.179000000
O    -3.197000000    -3.692000000    -1.187000000
C    -2.756000000    -3.042000000     0.057000000
C    -3.867000000    -2.090000000     0.611000000
C    -3.898000000    -1.724000000     1.959000000
H    -3.106000000    -2.094000000     2.605000000
C    -4.834000000    -1.619000000    -0.261000000
H    -4.781000000    -1.947000000    -1.296000000
O    -2.426000000    -4.141000000     0.956000000
H    -1.792000000    -2.524000000    -0.052000000
C    -1.082000000    -4.268000000    -2.146000000
C    -0.757000000    -5.313000000    -1.143000000
H    -0.062000000    -6.053000000    -1.546000000
H    -1.631000000    -5.950000000    -0.990000000
C    -0.188000000    -4.750000000     0.232000000
C     1.180000000    -4.776000000     0.498000000
H     1.894000000    -5.118000000    -0.247000000
C    -1.076000000    -4.256000000     1.228000000
C    -0.483000000    -3.886000000     2.483000000
H    -1.126000000    -3.471000000     3.255000000
C     0.860000000    -3.858000000     2.702000000
O     1.284000000    -3.278000000     3.836000000
C     1.836000000    -1.953000000     3.738000000
C     1.330000000    -1.071000000     4.894000000
C     0.183000000    -1.449000000     5.642000000
H    -0.343000000    -2.387000000     5.480000000
C     1.939000000     0.177000000     5.226000000
H     2.859000000     0.447000000     4.714000000
O     3.306000000    -1.809000000     3.643000000
H     1.284000000    -1.501000000     2.901000000
C     1.707000000    -4.384000000     1.745000000
C     3.160000000    -4.350000000     2.011000000
H     3.598000000    -5.252000000     1.580000000
H     3.411000000    -4.437000000     3.070000000
C     3.767000000    -3.028000000     1.550000000
C     3.851000000    -1.878000000     2.366000000
C     4.199000000    -0.665000000     1.812000000
H     4.131000000     0.249000000     2.398000000
C     4.683000000    -0.571000000     0.563000000
O     4.927000000     0.745000000     0.068000000
C     3.833000000     1.328000000    -0.786000000
H     2.963000000     0.708000000    -0.523000000
C     3.419000000     2.740000000    -0.470000000
C     3.219000000     3.781000000    -1.389000000
H     3.290000000     3.551000000    -2.450000000
C     3.287000000     3.064000000     0.893000000
H     3.397000000     2.286000000     1.645000000
C     3.115000000     4.472000000     1.276000000
O     3.116000000     4.910000000     2.586000000
C     2.924000000     5.443000000     0.270000000
H     2.976000000     6.493000000     0.549000000
C     2.845000000     5.051000000    -1.019000000
O     2.812000000     6.074000000    -1.942000000
C     2.154000000     6.053000000    -3.182000000
C     0.953000000     5.348000000    -3.281000000
H     0.616000000     4.792000000    -2.410000000
C     2.534000000     6.881000000    -4.292000000
H     3.411000000     7.516000000    -4.196000000
C     1.734000000     6.994000000    -5.444000000
H     2.024000000     7.683000000    -6.233000000
C     0.557000000     6.273000000    -5.457000000
H    -0.046000000     6.398000000    -6.352000000
C     0.113000000     5.467000000    -4.408000000
O    -1.241000000     5.048000000    -4.391000000
C    -1.773000000     3.783000000    -4.516000000
C    -3.175000000     3.606000000    -4.434000000
H    -3.852000000     4.457000000    -4.422000000
C    -3.758000000     2.334000000    -4.486000000
O    -5.144000000     2.252000000    -4.480000000
C    -5.737000000     1.087000000    -3.961000000
C    -5.860000000     0.925000000    -2.528000000
H    -5.500000000     1.720000000    -1.881000000
C    -6.416000000     0.138000000    -4.724000000
H    -6.487000000     0.203000000    -5.806000000
C    -6.963000000    -0.956000000    -4.126000000
H    -7.314000000    -1.683000000    -4.853000000
C    -7.071000000    -1.099000000    -2.768000000
H    -7.594000000    -1.946000000    -2.332000000
C    -6.569000000    -0.110000000    -1.933000000
O    -6.724000000    -0.126000000    -0.585000000
C    -5.817000000    -0.727000000     0.274000000
C    -5.745000000    -0.215000000     1.550000000
H    -6.327000000     0.661000000     1.825000000
C    -4.799000000    -0.759000000     2.406000000
O    -4.678000000    -0.310000000     3.752000000
C    -4.153000000    -1.093000000     4.759000000
C    -3.201000000    -0.494000000     5.562000000
H    -2.878000000     0.536000000     5.430000000
C    -4.653000000    -2.386000000     5.013000000
H    -5.394000000    -2.874000000     4.385000000
C    -3.951000000    -3.166000000     5.930000000
H    -4.127000000    -4.230000000     6.066000000
C    -2.941000000    -2.605000000     6.736000000
H    -2.507000000    -3.300000000     7.450000000
C    -2.635000000    -1.292000000     6.588000000
O    -1.503000000    -0.888000000     7.288000000
C    -0.372000000    -0.514000000     6.554000000
C     0.197000000     0.716000000     6.775000000
H    -0.215000000     1.442000000     7.472000000
C     1.370000000     1.023000000     6.099000000
O     1.915000000     2.283000000     6.401000000
C     2.997000000     2.866000000     5.671000000
C     4.314000000     2.918000000     6.078000000
H     4.543000000     2.462000000     7.037000000
C     5.252000000     3.613000000     5.295000000
H     6.313000000     3.583000000     5.526000000
C     4.815000000     4.330000000     4.127000000
H     5.476000000     4.821000000     3.418000000
C     3.497000000     4.150000000     3.690000000
C     2.612000000     3.500000000     4.535000000
H     1.574000000     3.348000000     4.249000000
C    -0.548000000     0.954000000     1.472000000
H    -0.946000000     1.260000000     2.437000000
C    -0.427000000    -0.500000000     1.336000000
H    -0.805000000    -1.163000000     2.110000000
C     0.120000000    -0.990000000     0.185000000
H     0.234000000    -2.090000000     0.062000000
C     0.595000000    -0.145000000    -0.801000000
H     1.152000000    -0.583000000    -1.625000000
C     0.440000000     1.238000000    -0.692000000
H     0.676000000     1.912000000    -1.512000000
C    -0.163000000     1.803000000     0.468000000
C    -0.426000000     3.268000000     0.549000000
O    -0.503000000     3.880000000    -0.513000000
O    -0.814000000     3.716000000     1.600000000
O    -4.098000000     2.466000000     6.784000000
H    -3.456000000     2.409000000     6.076000000
H    -3.864000000     3.266000000     7.255000000
O    -3.599000000     3.582000000     1.594000000
H    -3.915000000     3.637000000     0.692000000
H    -2.653000000     3.706000000     1.525000000
O     0.181000000     5.620000000     2.867000000
H    -0.367000000     4.882000000     2.596000000
H     0.888000000     5.643000000     2.223000000
O    -5.507000000     4.796000000    -2.127000000
H    -4.691000000     4.341000000    -1.921000000
H    -5.278000000     5.386000000    -2.845000000
O     0.610000000     7.609000000     0.528000000
H    -0.145000000     7.239000000     0.985000000
H     0.285000000     7.808000000    -0.350000000
O    -0.479000000     5.968000000     5.365000000
H     0.224000000     6.412000000     5.840000000
H    -0.157000000     5.904000000     4.466000000
O    -4.144000000     7.573000000     4.661000000
H    -4.309000000     6.819000000     4.096000000
H    -4.099000000     8.317000000     4.060000000
O    -1.776000000     6.278000000     0.779000000
H    -2.096000000     6.393000000    -0.116000000
H    -1.387000000     5.403000000     0.783000000
O    -2.721000000     0.646000000    -1.082000000
H    -1.845000000     1.010000000    -0.953000000
H    -2.760000000    -0.100000000    -0.483000000
O     1.961000000     9.850000000     2.214000000
H     1.921000000     9.057000000     1.680000000
H     1.694000000     9.565000000     3.087000000
O    -4.168000000     6.445000000     2.224000000
H    -3.386000000     6.197000000     1.731000000
H    -4.744000000     5.683000000     2.157000000
O    -2.712000000     6.571000000    -1.933000000
H    -3.586000000     6.797000000    -2.252000000
H    -2.300000000     6.115000000    -2.667000000
O    -3.431000000     3.308000000    -1.194000000
H    -2.552000000     3.569000000    -0.920000000
H    -3.371000000     2.361000000    -1.319000000
O     1.259000000     8.452000000     4.467000000
H     0.500000000     7.990000000     4.110000000
H     1.341000000     8.122000000     5.361000000
O    -6.025000000     6.626000000    -0.112000000
H    -5.882000000     5.844000000    -0.644000000
H    -6.870000000     6.477000000     0.311000000
O    -0.570000000     8.257000000    -2.097000000
H    -1.490000000     8.017000000    -2.213000000
H    -0.388000000     8.861000000    -2.817000000
O    -1.382000000     8.534000000     2.980000000
H    -1.421000000     7.578000000     2.938000000
H    -2.109000000     8.827000000     2.430000000
O    -2.809000000     4.038000000     4.943000000
H    -2.185000000     4.740000000     5.129000000
H    -2.909000000     4.053000000     3.991000000
O    -3.902000000     8.535000000     0.436000000
H    -3.976000000     7.586000000     0.337000000
H    -3.549000000     8.837000000    -0.401000000
