215
-1439.47601
C    -3.900000000     0.533000000    -2.750000000
H    -3.629000000    -0.511000000    -2.620000000
C    -2.958000000     1.404000000    -3.397000000
C    -3.307000000     2.726000000    -3.600000000
H    -2.747000000     3.403000000    -4.240000000
C    -1.606000000     0.805000000    -3.851000000
O    -1.665000000    -0.457000000    -4.539000000
H    -1.126000000     0.672000000    -2.870000000
O    -0.881000000     1.634000000    -4.721000000
C     0.439000000     1.918000000    -4.412000000
C     0.714000000     3.015000000    -3.588000000
H    -0.056000000     3.728000000    -3.305000000
C     2.015000000     3.146000000    -3.065000000
O     2.240000000     4.122000000    -2.165000000
C     3.011000000     2.181000000    -3.324000000
C     4.366000000     2.329000000    -2.603000000
H     5.161000000     1.965000000    -3.257000000
C     4.431000000     1.626000000    -1.263000000
C     4.935000000     0.281000000    -1.284000000
H     5.237000000    -0.215000000    -2.203000000
H     4.670000000     3.374000000    -2.524000000
C     2.689000000     1.065000000    -4.078000000
H     3.387000000     0.252000000    -4.262000000
C     1.413000000     0.890000000    -4.595000000
C     1.157000000    -0.303000000    -5.505000000
H     2.051000000    -0.647000000    -6.030000000
H     0.380000000     0.011000000    -6.205000000
C     0.572000000    -1.406000000    -4.590000000
C     1.447000000    -2.302000000    -4.003000000
H     2.520000000    -2.131000000    -4.045000000
C    -0.792000000    -1.439000000    -4.186000000
C    -1.287000000    -2.523000000    -3.438000000
H    -2.256000000    -2.539000000    -2.946000000
C    -0.377000000    -3.433000000    -2.992000000
O    -0.899000000    -4.315000000    -2.046000000
C    -0.584000000    -4.055000000    -0.714000000
C    -1.601000000    -4.444000000     0.317000000
C    -1.380000000    -5.137000000     1.515000000
H    -0.410000000    -5.516000000     1.829000000
C    -2.921000000    -4.040000000     0.020000000
H    -3.191000000    -3.486000000    -0.875000000
O     0.558000000    -4.809000000    -0.331000000
H    -0.510000000    -2.975000000    -0.522000000
C     0.991000000    -3.362000000    -3.290000000
C     1.966000000    -4.358000000    -2.795000000
H     2.771000000    -4.351000000    -3.534000000
H     1.538000000    -5.358000000    -2.695000000
C     2.474000000    -3.916000000    -1.463000000
C     3.659000000    -3.255000000    -1.392000000
H     4.312000000    -3.080000000    -2.243000000
C     1.728000000    -4.139000000    -0.294000000
C     2.348000000    -3.946000000     0.916000000
H     1.742000000    -4.030000000     1.814000000
C     3.520000000    -3.223000000     1.030000000
O     3.889000000    -2.722000000     2.239000000
C     3.425000000    -1.368000000     2.455000000
C     2.502000000    -1.280000000     3.696000000
C     2.020000000    -2.374000000     4.422000000
H     2.446000000    -3.359000000     4.251000000
C     1.890000000    -0.045000000     3.980000000
H     2.186000000     0.790000000     3.351000000
O     4.472000000    -0.476000000     2.317000000
H     2.730000000    -1.059000000     1.661000000
C     4.188000000    -2.899000000    -0.149000000
C     5.397000000    -1.870000000    -0.049000000
H     6.010000000    -2.218000000    -0.882000000
H     5.952000000    -2.076000000     0.868000000
C     4.982000000    -0.384000000    -0.043000000
C     4.478000000     0.203000000     1.128000000
C     4.066000000     1.548000000     1.091000000
H     3.717000000     1.965000000     2.032000000
C     4.082000000     2.321000000    -0.080000000
O     3.404000000     3.543000000    -0.123000000
C     2.112000000     3.690000000    -0.755000000
H     1.686000000     2.678000000    -0.683000000
C     1.183000000     4.561000000     0.106000000
C     0.056000000     5.222000000    -0.455000000
H    -0.385000000     4.810000000    -1.360000000
C     1.490000000     4.800000000     1.463000000
H     2.337000000     4.310000000     1.937000000
C     0.677000000     5.674000000     2.248000000
O     0.870000000     5.796000000     3.596000000
C    -0.343000000     6.396000000     1.654000000
H    -1.059000000     6.942000000     2.262000000
C    -0.584000000     6.218000000     0.335000000
O    -1.738000000     6.825000000    -0.057000000
C    -2.245000000     6.661000000    -1.368000000
C    -3.188000000     5.670000000    -1.626000000
H    -3.522000000     4.984000000    -0.852000000
C    -1.922000000     7.555000000    -2.440000000
H    -1.340000000     8.434000000    -2.174000000
C    -2.428000000     7.425000000    -3.636000000
H    -2.176000000     8.154000000    -4.401000000
C    -3.418000000     6.533000000    -3.887000000
H    -3.868000000     6.559000000    -4.876000000
C    -3.772000000     5.583000000    -2.894000000
O    -4.732000000     4.641000000    -3.101000000
C    -4.403000000     3.273000000    -2.970000000
C    -5.278000000     2.445000000    -2.237000000
H    -6.135000000     2.946000000    -1.792000000
C    -5.050000000     1.099000000    -2.144000000
O    -5.903000000     0.440000000    -1.313000000
C    -6.073000000    -0.898000000    -1.355000000
C    -5.475000000    -1.712000000    -0.384000000
H    -4.957000000    -1.187000000     0.415000000
C    -6.789000000    -1.465000000    -2.421000000
H    -7.196000000    -0.799000000    -3.177000000
C    -7.001000000    -2.848000000    -2.404000000
H    -7.580000000    -3.318000000    -3.194000000
C    -6.665000000    -3.682000000    -1.363000000
H    -6.690000000    -4.769000000    -1.355000000
C    -5.796000000    -3.099000000    -0.386000000
O    -5.327000000    -3.998000000     0.616000000
C    -4.030000000    -4.401000000     0.850000000
C    -3.745000000    -5.104000000     2.001000000
H    -4.565000000    -5.309000000     2.684000000
C    -2.433000000    -5.419000000     2.406000000
O    -2.249000000    -5.914000000     3.717000000
C    -1.106000000    -5.727000000     4.449000000
C    -0.642000000    -4.511000000     4.929000000
H    -1.134000000    -3.579000000     4.662000000
C    -0.368000000    -6.768000000     4.772000000
H    -0.691000000    -7.720000000     4.358000000
C     0.792000000    -6.798000000     5.585000000
H     1.313000000    -7.718000000     5.838000000
C     1.255000000    -5.533000000     6.027000000
H     2.138000000    -5.393000000     6.646000000
C     0.466000000    -4.424000000     5.724000000
O     0.930000000    -3.201000000     6.253000000
C     1.121000000    -2.191000000     5.444000000
C     0.556000000    -0.972000000     5.717000000
H    -0.141000000    -0.867000000     6.545000000
C     0.884000000     0.109000000     4.928000000
O     0.370000000     1.353000000     5.361000000
C     1.090000000     2.548000000     5.233000000
C     2.260000000     2.793000000     5.963000000
H     2.480000000     2.120000000     6.788000000
C     2.965000000     3.928000000     5.819000000
H     3.809000000     4.167000000     6.460000000
C     2.511000000     4.892000000     4.920000000
H     3.051000000     5.835000000     4.898000000
C     1.308000000     4.700000000     4.242000000
C     0.592000000     3.539000000     4.375000000
H    -0.357000000     3.326000000     3.891000000
C    -1.113000000     0.644000000     0.170000000
H    -1.616000000     1.433000000    -0.383000000
C     0.039000000     0.031000000    -0.344000000
H     0.554000000     0.361000000    -1.243000000
C     0.649000000    -1.007000000     0.409000000
H     1.633000000    -1.405000000     0.092000000
C     0.053000000    -1.437000000     1.580000000
H     0.570000000    -2.275000000     2.039000000
C    -1.128000000    -0.888000000     2.014000000
H    -1.583000000    -1.269000000     2.925000000
C    -1.699000000     0.166000000     1.354000000
C    -2.993000000     0.721000000     1.952000000
O    -3.576000000     0.180000000     2.911000000
O    -3.390000000     1.738000000     1.502000000
O    -4.179000000     6.587000000     1.626000000
H    -3.281000000     6.565000000     1.296000000
H    -4.325000000     5.708000000     1.977000000
O    -7.769000000     3.099000000     0.305000000
H    -7.234000000     3.854000000     0.058000000
H    -8.598000000     3.479000000     0.597000000
O    -3.884000000    -1.995000000     4.667000000
H    -3.569000000    -1.302000000     4.086000000
H    -3.905000000    -1.590000000     5.534000000
O    -2.819000000     1.460000000     5.361000000
H    -3.222000000     1.142000000     4.553000000
H    -1.929000000     1.703000000     5.106000000
O    -3.953000000     1.626000000     7.788000000
H    -3.558000000     1.561000000     6.918000000
H    -3.208000000     1.657000000     8.388000000
O    -8.889000000     1.267000000     3.068000000
H    -9.337000000     1.445000000     2.241000000
H    -7.986000000     1.073000000     2.815000000
O    -2.390000000     4.898000000     4.122000000
H    -2.659000000     4.168000000     3.564000000
H    -3.079000000     4.961000000     4.783000000
O    -4.407000000     4.019000000     2.266000000
H    -5.276000000     3.663000000     2.450000000
H    -3.933000000     3.295000000     1.857000000
O    -7.109000000    -5.123000000     3.865000000
H    -6.705000000    -4.357000000     3.458000000
H    -7.302000000    -4.845000000     4.760000000
O    -4.198000000    -4.538000000     5.464000000
H    -3.970000000    -3.627000000     5.279000000
H    -3.697000000    -5.045000000     4.824000000
O    -6.469000000    -2.672000000     3.380000000
H    -6.449000000    -2.522000000     4.325000000
H    -5.733000000    -2.164000000     3.041000000
O    -4.991000000    -1.405000000     7.997000000
H    -5.677000000    -1.401000000     8.664000000
H    -5.060000000    -0.548000000     7.577000000
O    -2.448000000     4.266000000     8.616000000
H    -2.300000000     4.124000000     7.681000000
H    -2.811000000     5.150000000     8.670000000
O    -4.400000000     4.733000000     5.915000000
H    -4.655000000     4.548000000     6.818000000
H    -4.718000000     3.980000000     5.417000000
O    -6.129000000     5.368000000     0.321000000
H    -5.416000000     5.784000000     0.806000000
H    -6.456000000     6.056000000    -0.260000000
O    -6.388000000     2.413000000     4.875000000
H    -6.420000000     2.027000000     4.000000000
H    -6.680000000     1.712000000     5.457000000
O    -8.861000000    -2.938000000     1.659000000
H    -8.933000000    -3.811000000     1.272000000
H    -7.934000000    -2.850000000     1.880000000
O    -6.344000000     1.100000000     2.181000000
H    -5.443000000     0.845000000     2.378000000
H    -6.287000000     1.545000000     1.335000000
O    -7.152000000     0.187000000     6.416000000
H    -7.797000000     0.517000000     7.042000000
H    -7.267000000    -0.763000000     6.433000000
