215
-1448.75694
C    -4.607000000     0.037000000    -2.733000000
H    -4.600000000    -0.927000000    -3.235000000
C    -3.462000000     0.853000000    -2.862000000
C    -3.575000000     2.086000000    -2.194000000
H    -2.707000000     2.735000000    -2.120000000
C    -2.206000000     0.363000000    -3.539000000
O    -2.356000000    -0.889000000    -4.129000000
H    -1.438000000     0.296000000    -2.754000000
O    -1.716000000     1.216000000    -4.540000000
C    -0.324000000     1.543000000    -4.447000000
C     0.057000000     2.627000000    -3.644000000
H    -0.724000000     3.263000000    -3.235000000
C     1.355000000     2.860000000    -3.336000000
O     1.596000000     3.906000000    -2.554000000
C     2.339000000     1.996000000    -3.837000000
C     3.755000000     2.208000000    -3.497000000
H     4.362000000     1.861000000    -4.336000000
C     4.188000000     1.637000000    -2.151000000
C     4.641000000     0.339000000    -2.056000000
H     4.547000000    -0.234000000    -2.976000000
H     3.875000000     3.293000000    -3.490000000
C     2.035000000     0.902000000    -4.608000000
H     2.810000000     0.197000000    -4.899000000
C     0.646000000     0.635000000    -4.872000000
C     0.274000000    -0.637000000    -5.564000000
H     1.025000000    -0.913000000    -6.307000000
H    -0.663000000    -0.584000000    -6.123000000
C    -0.039000000    -1.691000000    -4.531000000
C     0.908000000    -2.703000000    -4.247000000
H     1.917000000    -2.790000000    -4.640000000
C    -1.359000000    -1.813000000    -3.960000000
C    -1.648000000    -2.848000000    -3.050000000
H    -2.637000000    -2.843000000    -2.600000000
C    -0.615000000    -3.644000000    -2.626000000
O    -0.961000000    -4.468000000    -1.593000000
C    -0.570000000    -4.139000000    -0.290000000
C    -1.711000000    -4.341000000     0.684000000
C    -1.564000000    -5.115000000     1.849000000
H    -0.598000000    -5.526000000     2.131000000
C    -2.975000000    -3.738000000     0.523000000
H    -3.137000000    -3.112000000    -0.351000000
O     0.615000000    -4.805000000     0.072000000
H    -0.381000000    -3.059000000    -0.201000000
C     0.630000000    -3.500000000    -3.126000000
C     1.730000000    -4.485000000    -2.622000000
H     2.487000000    -4.761000000    -3.359000000
H     1.217000000    -5.436000000    -2.465000000
C     2.350000000    -3.863000000    -1.426000000
C     3.466000000    -3.110000000    -1.585000000
H     3.815000000    -2.851000000    -2.581000000
C     1.853000000    -4.219000000    -0.128000000
C     2.541000000    -3.733000000     0.960000000
H     2.124000000    -3.920000000     1.946000000
C     3.640000000    -2.974000000     0.808000000
O     4.022000000    -2.314000000     1.942000000
C     3.573000000    -1.029000000     1.928000000
C     2.856000000    -0.674000000     3.226000000
C     2.141000000    -1.693000000     3.875000000
H     2.270000000    -2.727000000     3.567000000
C     2.862000000     0.636000000     3.721000000
H     3.396000000     1.434000000     3.212000000
O     4.630000000    -0.110000000     1.606000000
H     2.817000000    -0.934000000     1.135000000
C     4.217000000    -2.679000000    -0.483000000
C     5.399000000    -1.706000000    -0.655000000
H     5.972000000    -1.914000000    -1.561000000
H     6.071000000    -1.771000000     0.204000000
C     4.911000000    -0.240000000    -0.774000000
C     4.525000000     0.477000000     0.357000000
C     4.104000000     1.819000000     0.265000000
H     3.915000000     2.356000000     1.191000000
C     4.030000000     2.395000000    -0.992000000
O     3.394000000     3.573000000    -1.020000000
C     1.934000000     3.672000000    -1.153000000
H     1.520000000     2.727000000    -0.772000000
C     1.419000000     4.813000000    -0.326000000
C     0.396000000     5.637000000    -0.741000000
H    -0.045000000     5.528000000    -1.728000000
C     1.986000000     4.914000000     0.945000000
H     2.804000000     4.250000000     1.215000000
C     1.446000000     5.823000000     1.850000000
O     1.919000000     5.975000000     3.142000000
C     0.296000000     6.565000000     1.489000000
H    -0.155000000     7.169000000     2.272000000
C    -0.246000000     6.443000000     0.209000000
O    -1.396000000     7.094000000    -0.123000000
C    -2.347000000     6.547000000    -0.929000000
C    -3.124000000     5.413000000    -0.586000000
H    -3.002000000     4.951000000     0.390000000
C    -2.564000000     7.032000000    -2.202000000
H    -2.018000000     7.911000000    -2.536000000
C    -3.300000000     6.387000000    -3.139000000
H    -3.385000000     6.822000000    -4.131000000
C    -4.080000000     5.288000000    -2.754000000
H    -4.777000000     4.859000000    -3.470000000
C    -3.996000000     4.834000000    -1.486000000
O    -4.801000000     3.779000000    -1.090000000
C    -4.813000000     2.552000000    -1.693000000
C    -5.945000000     1.703000000    -1.740000000
H    -6.886000000     2.055000000    -1.324000000
C    -5.800000000     0.407000000    -2.175000000
O    -6.896000000    -0.419000000    -1.992000000
C    -6.772000000    -1.676000000    -1.435000000
C    -5.855000000    -1.798000000    -0.377000000
H    -5.237000000    -0.943000000    -0.114000000
C    -7.561000000    -2.699000000    -1.872000000
H    -8.297000000    -2.616000000    -2.667000000
C    -7.512000000    -3.878000000    -1.151000000
H    -7.966000000    -4.754000000    -1.606000000
C    -6.608000000    -4.022000000    -0.070000000
H    -6.576000000    -5.002000000     0.399000000
C    -5.794000000    -2.994000000     0.284000000
O    -5.107000000    -3.097000000     1.394000000
C    -3.969000000    -3.778000000     1.496000000
C    -3.718000000    -4.458000000     2.714000000
H    -4.465000000    -4.546000000     3.498000000
C    -2.546000000    -5.176000000     2.849000000
O    -2.184000000    -5.672000000     4.127000000
C    -1.068000000    -5.294000000     4.755000000
C    -0.787000000    -3.933000000     4.903000000
H    -1.520000000    -3.170000000     4.653000000
C    -0.277000000    -6.312000000     5.265000000
H    -0.574000000    -7.354000000     5.173000000
C     0.921000000    -5.953000000     5.941000000
H     1.535000000    -6.727000000     6.395000000
C     1.303000000    -4.619000000     6.118000000
H     2.237000000    -4.390000000     6.625000000
C     0.470000000    -3.617000000     5.639000000
O     0.820000000    -2.299000000     5.871000000
C     1.542000000    -1.398000000     5.119000000
C     1.635000000    -0.130000000     5.679000000
H     1.134000000    -0.005000000     6.636000000
C     2.308000000     0.858000000     5.015000000
O     2.395000000     2.050000000     5.637000000
C     3.025000000     3.183000000     5.097000000
C     4.414000000     3.288000000     4.963000000
H     5.089000000     2.514000000     5.321000000
C     4.986000000     4.345000000     4.280000000
H     6.061000000     4.313000000     4.123000000
C     4.172000000     5.342000000     3.747000000
H     4.602000000     6.234000000     3.299000000
C     2.830000000     5.165000000     3.707000000
C     2.261000000     4.072000000     4.400000000
H     1.177000000     4.094000000     4.476000000
C    -1.283000000     2.687000000     1.450000000
H    -1.622000000     3.713000000     1.563000000
C    -0.814000000     2.302000000     0.176000000
H    -0.798000000     2.966000000    -0.685000000
C    -0.291000000     1.028000000     0.055000000
H     0.078000000     0.817000000    -0.962000000
C    -0.371000000     0.081000000     1.109000000
H    -0.026000000    -0.943000000     0.985000000
C    -0.850000000     0.480000000     2.345000000
H    -0.849000000    -0.267000000     3.135000000
C    -1.322000000     1.783000000     2.503000000
C    -2.045000000     2.112000000     3.805000000
O    -2.449000000     1.214000000     4.563000000
O    -2.205000000     3.312000000     4.043000000
O    -4.158000000     8.024000000     2.592000000
H    -4.807000000     8.378000000     1.984000000
H    -4.084000000     7.100000000     2.352000000
O    -5.308000000     2.261000000     1.598000000
H    -4.856000000     2.500000000     2.407000000
H    -4.772000000     2.643000000     0.902000000
O    -2.981000000    -0.223000000     6.744000000
H    -2.577000000     0.277000000     6.034000000
H    -3.534000000     0.412000000     7.199000000
O    -4.556000000     6.942000000     6.163000000
H    -4.228000000     6.099000000     5.850000000
H    -4.045000000     7.120000000     6.952000000
O    -0.501000000     2.181000000     6.421000000
H     0.378000000     2.292000000     6.058000000
H    -1.028000000     1.875000000     5.683000000
O    -0.784000000     3.242000000     8.868000000
H    -0.804000000     2.989000000     7.945000000
H    -0.993000000     2.437000000     9.342000000
O    -6.990000000     0.407000000     2.722000000
H    -6.390000000     1.041000000     2.328000000
H    -6.498000000    -0.414000000     2.732000000
O    -1.744000000     6.088000000     4.573000000
H    -1.672000000     5.137000000     4.495000000
H    -1.525000000     6.271000000     5.487000000
O    -3.810000000     5.178000000     2.899000000
H    -3.567000000     5.748000000     3.628000000
H    -3.117000000     4.518000000     2.870000000
O    -6.267000000     4.958000000     7.458000000
H    -5.507000000     4.577000000     7.017000000
H    -5.918000000     5.722000000     7.918000000
O    -4.479000000    -1.272000000     3.901000000
H    -4.534000000    -1.952000000     4.572000000
H    -3.542000000    -1.173000000     3.736000000
O    -2.152000000    -2.606000000     7.652000000
H    -2.452000000    -1.851000000     7.146000000
H    -1.493000000    -2.249000000     8.247000000
O    -7.709000000     2.875000000     4.766000000
H    -6.817000000     2.571000000     4.601000000
H    -8.020000000     3.179000000     3.913000000
O    -5.136000000     1.219000000     4.987000000
H    -5.471000000     0.428000000     4.564000000
H    -4.185000000     1.146000000     4.912000000
O    -2.099000000     5.366000000     7.647000000
H    -1.596000000     4.794000000     8.227000000
H    -2.612000000     4.767000000     7.104000000
O    -6.068000000     5.228000000     1.378000000
H    -5.248000000     5.217000000     1.873000000
H    -6.746000000     5.360000000     2.040000000
O    -4.606000000     1.616000000     8.532000000
H    -5.550000000     1.687000000     8.677000000
H    -4.215000000     2.082000000     9.271000000
O    -3.759000000     3.800000000     6.330000000
H    -3.247000000     3.546000000     5.562000000
H    -4.010000000     2.971000000     6.736000000
O    -4.664000000    -1.561000000     8.626000000
H    -5.205000000    -1.941000000     7.933000000
H    -4.028000000    -1.017000000     8.162000000
