215
-1468.21783
C    -4.477000000     0.572000000    -2.261000000
H    -4.344000000    -0.504000000    -2.346000000
C    -3.522000000     1.358000000    -2.899000000
C    -3.528000000     2.792000000    -2.819000000
H    -2.776000000     3.367000000    -3.352000000
C    -2.389000000     0.556000000    -3.565000000
O    -2.836000000    -0.678000000    -4.242000000
H    -1.669000000     0.352000000    -2.758000000
O    -1.703000000     1.363000000    -4.584000000
C    -0.346000000     1.457000000    -4.446000000
C     0.095000000     2.370000000    -3.586000000
H    -0.571000000     3.120000000    -3.167000000
C     1.447000000     2.455000000    -3.278000000
O     1.756000000     3.444000000    -2.451000000
C     2.339000000     1.511000000    -3.844000000
C     3.848000000     1.699000000    -3.663000000
H     4.432000000     1.214000000    -4.448000000
C     4.273000000     1.097000000    -2.260000000
C     4.572000000    -0.274000000    -2.175000000
H     4.481000000    -0.987000000    -2.991000000
H     4.164000000     2.740000000    -3.763000000
C     1.838000000     0.473000000    -4.600000000
H     2.550000000    -0.323000000    -4.801000000
C     0.443000000     0.417000000    -4.937000000
C    -0.120000000    -0.773000000    -5.684000000
H     0.584000000    -1.088000000    -6.457000000
H    -0.996000000    -0.682000000    -6.330000000
C    -0.632000000    -1.808000000    -4.701000000
C     0.291000000    -2.731000000    -4.244000000
H     1.324000000    -2.654000000    -4.571000000
C    -1.928000000    -1.716000000    -4.126000000
C    -2.276000000    -2.746000000    -3.251000000
H    -3.195000000    -2.667000000    -2.676000000
C    -1.406000000    -3.700000000    -2.767000000
O    -1.843000000    -4.490000000    -1.740000000
C    -1.332000000    -4.112000000    -0.442000000
C    -2.383000000    -4.415000000     0.628000000
C    -1.974000000    -4.596000000     1.940000000
H    -0.927000000    -4.760000000     2.184000000
C    -3.732000000    -4.215000000     0.351000000
H    -4.042000000    -4.260000000    -0.690000000
O    -0.084000000    -4.873000000    -0.153000000
H    -1.173000000    -3.024000000    -0.431000000
C    -0.140000000    -3.707000000    -3.339000000
C     0.890000000    -4.639000000    -2.806000000
H     1.653000000    -4.823000000    -3.565000000
H     0.412000000    -5.608000000    -2.649000000
C     1.619000000    -4.140000000    -1.594000000
C     2.878000000    -3.555000000    -1.793000000
H     3.206000000    -3.424000000    -2.821000000
C     1.186000000    -4.431000000    -0.254000000
C     1.899000000    -3.945000000     0.853000000
H     1.547000000    -3.848000000     1.877000000
C     3.165000000    -3.325000000     0.593000000
O     3.852000000    -2.760000000     1.643000000
C     3.529000000    -1.409000000     1.895000000
C     3.214000000    -1.128000000     3.364000000
C     2.547000000    -2.056000000     4.140000000
H     2.600000000    -3.074000000     3.764000000
C     3.236000000     0.231000000     3.763000000
H     3.870000000     0.968000000     3.277000000
O     4.639000000    -0.644000000     1.431000000
H     2.632000000    -1.029000000     1.384000000
C     3.637000000    -3.203000000    -0.704000000
C     4.908000000    -2.438000000    -0.926000000
H     5.402000000    -2.652000000    -1.876000000
H     5.581000000    -2.690000000    -0.104000000
C     4.765000000    -0.909000000    -0.935000000
C     4.720000000    -0.042000000     0.188000000
C     4.512000000     1.353000000     0.080000000
H     4.360000000     1.970000000     0.962000000
C     4.219000000     1.919000000    -1.130000000
O     3.676000000     3.151000000    -1.148000000
C     2.218000000     3.246000000    -1.124000000
H     1.811000000     2.300000000    -0.739000000
C     1.773000000     4.317000000    -0.164000000
C     0.486000000     4.859000000    -0.218000000
H    -0.169000000     4.505000000    -1.011000000
C     2.616000000     4.637000000     0.879000000
H     3.636000000     4.297000000     1.037000000
C     2.102000000     5.488000000     1.876000000
O     2.922000000     5.880000000     2.918000000
C     0.871000000     6.100000000     1.804000000
H     0.502000000     6.734000000     2.606000000
C     0.032000000     5.737000000     0.771000000
O    -1.271000000     6.156000000     0.876000000
C    -2.076000000     6.377000000    -0.233000000
C    -3.018000000     5.396000000    -0.577000000
H    -3.204000000     4.555000000     0.086000000
C    -1.856000000     7.461000000    -1.060000000
H    -1.109000000     8.215000000    -0.823000000
C    -2.608000000     7.750000000    -2.180000000
H    -2.485000000     8.667000000    -2.750000000
C    -3.602000000     6.840000000    -2.520000000
H    -4.251000000     6.917000000    -3.388000000
C    -3.754000000     5.658000000    -1.707000000
O    -4.740000000     4.777000000    -2.117000000
C    -4.626000000     3.411000000    -2.193000000
C    -5.624000000     2.637000000    -1.545000000
H    -6.389000000     3.229000000    -1.051000000
C    -5.474000000     1.275000000    -1.498000000
O    -6.278000000     0.622000000    -0.624000000
C    -6.539000000    -0.735000000    -0.690000000
C    -6.139000000    -1.542000000     0.324000000
H    -5.737000000    -1.158000000     1.258000000
C    -6.915000000    -1.239000000    -1.918000000
H    -7.065000000    -0.560000000    -2.753000000
C    -7.037000000    -2.623000000    -2.076000000
H    -7.339000000    -3.056000000    -3.026000000
C    -6.845000000    -3.475000000    -1.018000000
H    -6.969000000    -4.529000000    -1.252000000
C    -6.296000000    -2.960000000     0.132000000
O    -5.909000000    -3.829000000     1.160000000
C    -4.625000000    -4.173000000     1.393000000
C    -4.264000000    -4.261000000     2.713000000
H    -4.967000000    -4.203000000     3.540000000
C    -2.889000000    -4.540000000     2.991000000
O    -2.454000000    -4.472000000     4.311000000
C    -1.149000000    -4.616000000     4.734000000
C    -0.436000000    -3.543000000     5.205000000
H    -0.884000000    -2.555000000     5.278000000
C    -0.559000000    -5.855000000     4.596000000
H    -1.052000000    -6.675000000     4.080000000
C     0.766000000    -6.012000000     5.056000000
H     1.234000000    -6.983000000     4.917000000
C     1.374000000    -4.975000000     5.812000000
H     2.334000000    -5.093000000     6.310000000
C     0.778000000    -3.704000000     5.751000000
O     1.469000000    -2.579000000     6.249000000
C     2.057000000    -1.702000000     5.353000000
C     2.114000000    -0.384000000     5.729000000
H     1.820000000    -0.197000000     6.759000000
C     2.680000000     0.634000000     4.980000000
O     2.716000000     1.896000000     5.471000000
C     3.445000000     2.984000000     4.985000000
C     4.718000000     3.195000000     5.458000000
H     5.246000000     2.494000000     6.099000000
C     5.417000000     4.285000000     4.971000000
H     6.470000000     4.285000000     5.240000000
C     4.873000000     5.204000000     4.056000000
H     5.401000000     6.121000000     3.807000000
C     3.570000000     5.005000000     3.645000000
C     2.881000000     3.867000000     4.087000000
H     1.844000000     3.772000000     3.776000000
C    -1.465000000     2.039000000     0.982000000
H    -2.013000000     2.803000000     0.436000000
C    -0.973000000     0.956000000     0.252000000
H    -1.193000000     0.845000000    -0.807000000
C    -0.414000000    -0.115000000     0.959000000
H    -0.018000000    -1.021000000     0.434000000
C    -0.150000000    -0.001000000     2.296000000
H     0.422000000    -0.759000000     2.826000000
C    -0.629000000     1.134000000     3.041000000
H    -0.487000000     1.163000000     4.118000000
C    -1.337000000     2.097000000     2.378000000
C    -1.979000000     3.157000000     3.204000000
O    -1.737000000     3.394000000     4.402000000
O    -2.796000000     3.877000000     2.620000000
O    -3.269000000     4.931000000     9.555000000
H    -3.259000000     4.557000000     8.674000000
H    -2.344000000     5.027000000     9.785000000
O     1.555000000     5.556000000     7.827000000
H     1.252000000     4.950000000     7.151000000
H     1.027000000     6.343000000     7.698000000
O    -5.017000000     8.171000000     2.008000000
H    -5.427000000     8.808000000     1.423000000
H    -5.201000000     7.322000000     1.606000000
O    -4.552000000     1.709000000     1.751000000
H    -3.927000000     2.395000000     1.986000000
H    -4.147000000     0.900000000     2.063000000
O    -2.143000000     0.512000000     6.127000000
H    -1.306000000     0.974000000     6.076000000
H    -2.319000000     0.438000000     7.064000000
O    -1.092000000     8.930000000     4.330000000
H    -0.163000000     8.700000000     4.300000000
H    -1.548000000     8.091000000     4.259000000
O     0.158000000     4.365000000     5.848000000
H    -0.004000000     5.266000000     5.567000000
H    -0.487000000     3.845000000     5.367000000
O     0.114000000     2.905000000     8.384000000
H     0.222000000     3.375000000     7.557000000
H     0.880000000     2.334000000     8.437000000
O    -7.274000000     1.465000000     2.387000000
H    -6.416000000     1.650000000     2.006000000
H    -7.102000000     1.351000000     3.322000000
O    -1.800000000     6.112000000     3.806000000
H    -1.522000000     6.052000000     2.892000000
H    -2.145000000     5.243000000     4.009000000
O    -5.121000000     5.178000000     2.113000000
H    -5.618000000     5.116000000     2.929000000
H    -4.250000000     4.850000000     2.338000000
O    -6.463000000     5.021000000     4.349000000
H    -5.805000000     4.439000000     4.729000000
H    -7.061000000     5.211000000     5.072000000
O    -2.571000000     7.580000000     7.200000000
H    -2.836000000     6.663000000     7.129000000
H    -2.980000000     8.007000000     6.447000000
O    -6.070000000     0.625000000     4.775000000
H    -5.178000000     0.426000000     4.490000000
H    -6.161000000     0.167000000     5.611000000
O    -4.233000000     8.062000000     4.976000000
H    -4.356000000     7.798000000     4.064000000
H    -5.094000000     7.947000000     5.377000000
O    -2.930000000     4.661000000     6.825000000
H    -2.246000000     4.195000000     6.345000000
H    -3.695000000     4.623000000     6.251000000
O    -2.022000000     0.997000000     8.769000000
H    -1.238000000     1.462000000     8.476000000
H    -1.912000000     0.916000000     9.716000000
O    -4.757000000     3.242000000     5.144000000
H    -3.874000000     3.061000000     4.823000000
H    -5.250000000     2.444000000     4.952000000
O    -3.602000000    -0.388000000     3.980000000
H    -3.260000000    -1.240000000     3.709000000
H    -2.965000000    -0.067000000     4.618000000
