215
-1464.88768
C    -4.738000000     0.089000000    -2.928000000
H    -4.739000000    -0.971000000    -3.170000000
C    -3.708000000     0.934000000    -3.235000000
C    -3.774000000     2.277000000    -3.001000000
H    -2.870000000     2.881000000    -3.018000000
C    -2.404000000     0.362000000    -3.709000000
O    -2.539000000    -0.965000000    -4.264000000
H    -1.721000000     0.188000000    -2.864000000
O    -1.700000000     1.181000000    -4.719000000
C    -0.343000000     1.268000000    -4.542000000
C     0.112000000     2.375000000    -3.885000000
H    -0.633000000     3.127000000    -3.639000000
C     1.411000000     2.457000000    -3.457000000
O     1.789000000     3.582000000    -2.659000000
C     2.318000000     1.429000000    -3.851000000
C     3.862000000     1.629000000    -3.553000000
H     4.408000000     1.058000000    -4.308000000
C     4.250000000     1.087000000    -2.184000000
C     4.579000000    -0.274000000    -2.054000000
H     4.708000000    -0.856000000    -2.963000000
H     4.085000000     2.697000000    -3.592000000
C     1.883000000     0.296000000    -4.552000000
H     2.561000000    -0.429000000    -4.996000000
C     0.543000000     0.228000000    -4.979000000
C    -0.014000000    -1.072000000    -5.605000000
H     0.772000000    -1.482000000    -6.241000000
H    -0.920000000    -0.794000000    -6.149000000
C    -0.386000000    -2.035000000    -4.470000000
C     0.558000000    -2.993000000    -4.068000000
H     1.535000000    -2.996000000    -4.544000000
C    -1.677000000    -1.912000000    -3.845000000
C    -2.055000000    -2.844000000    -2.849000000
H    -3.007000000    -2.728000000    -2.336000000
C    -1.037000000    -3.726000000    -2.444000000
O    -1.515000000    -4.541000000    -1.466000000
C    -0.978000000    -4.248000000    -0.167000000
C    -2.068000000    -4.142000000     0.965000000
C    -1.731000000    -4.466000000     2.301000000
H    -0.673000000    -4.681000000     2.434000000
C    -3.356000000    -3.698000000     0.682000000
H    -3.709000000    -3.520000000    -0.331000000
O     0.067000000    -5.166000000     0.165000000
H    -0.548000000    -3.236000000    -0.198000000
C     0.223000000    -3.937000000    -3.065000000
C     1.226000000    -5.000000000    -2.516000000
H     1.930000000    -5.332000000    -3.283000000
H     0.702000000    -5.932000000    -2.294000000
C     1.895000000    -4.455000000    -1.307000000
C     3.070000000    -3.719000000    -1.490000000
H     3.504000000    -3.620000000    -2.482000000
C     1.400000000    -4.606000000    -0.012000000
C     1.967000000    -3.973000000     1.076000000
H     1.525000000    -4.137000000     2.055000000
C     3.117000000    -3.185000000     0.874000000
O     3.554000000    -2.504000000     1.924000000
C     3.558000000    -1.053000000     2.070000000
C     3.172000000    -0.591000000     3.495000000
C     2.337000000    -1.392000000     4.295000000
H     1.831000000    -2.258000000     3.876000000
C     3.630000000     0.620000000     4.003000000
H     4.144000000     1.349000000     3.381000000
O     4.747000000    -0.482000000     1.549000000
H     2.803000000    -0.672000000     1.367000000
C     3.672000000    -3.146000000    -0.428000000
C     4.983000000    -2.326000000    -0.678000000
H     5.558000000    -2.768000000    -1.494000000
H     5.611000000    -2.499000000     0.199000000
C     4.757000000    -0.816000000    -0.774000000
C     4.689000000     0.050000000     0.337000000
C     4.417000000     1.381000000     0.222000000
H     4.344000000     2.091000000     1.042000000
C     4.083000000     1.861000000    -1.028000000
O     3.529000000     3.092000000    -1.065000000
C     2.092000000     3.229000000    -1.280000000
H     1.538000000     2.318000000    -1.009000000
C     1.502000000     4.305000000    -0.353000000
C     0.211000000     4.748000000    -0.563000000
H    -0.441000000     4.308000000    -1.313000000
C     2.174000000     4.665000000     0.815000000
H     3.093000000     4.115000000     1.002000000
C     1.621000000     5.485000000     1.749000000
O     2.378000000     5.919000000     2.824000000
C     0.381000000     6.091000000     1.480000000
H    -0.017000000     6.858000000     2.139000000
C    -0.321000000     5.720000000     0.303000000
O    -1.555000000     6.227000000     0.074000000
C    -2.258000000     6.075000000    -1.062000000
C    -3.334000000     5.130000000    -1.111000000
H    -3.520000000     4.523000000    -0.229000000
C    -2.029000000     6.941000000    -2.140000000
H    -1.215000000     7.660000000    -2.106000000
C    -2.829000000     6.892000000    -3.322000000
H    -2.713000000     7.565000000    -4.167000000
C    -3.891000000     5.982000000    -3.287000000
H    -4.547000000     5.965000000    -4.153000000
C    -4.125000000     5.102000000    -2.224000000
O    -5.109000000     4.188000000    -2.198000000
C    -4.939000000     2.856000000    -2.493000000
C    -6.026000000     2.054000000    -2.126000000
H    -6.943000000     2.494000000    -1.742000000
C    -5.898000000     0.676000000    -2.358000000
O    -6.898000000    -0.143000000    -1.976000000
C    -6.814000000    -1.419000000    -1.395000000
C    -6.102000000    -1.640000000    -0.201000000
H    -5.581000000    -0.914000000     0.418000000
C    -7.540000000    -2.496000000    -2.008000000
H    -8.218000000    -2.306000000    -2.836000000
C    -7.529000000    -3.787000000    -1.473000000
H    -7.954000000    -4.654000000    -1.972000000
C    -6.975000000    -3.935000000    -0.186000000
H    -7.001000000    -4.909000000     0.297000000
C    -6.263000000    -2.885000000     0.403000000
O    -5.630000000    -3.132000000     1.601000000
C    -4.271000000    -3.550000000     1.744000000
C    -3.860000000    -3.750000000     3.032000000
H    -4.610000000    -3.522000000     3.785000000
C    -2.543000000    -4.058000000     3.346000000
O    -2.250000000    -4.295000000     4.669000000
C    -0.943000000    -4.212000000     5.206000000
C    -0.561000000    -3.005000000     5.805000000
H    -1.197000000    -2.129000000     5.706000000
C     0.009000000    -5.200000000     5.030000000
H    -0.284000000    -6.119000000     4.529000000
C     1.297000000    -5.127000000     5.549000000
H     2.068000000    -5.891000000     5.498000000
C     1.626000000    -3.913000000     6.130000000
H     2.653000000    -3.714000000     6.424000000
C     0.755000000    -2.850000000     6.198000000
O     1.184000000    -1.595000000     6.445000000
C     1.951000000    -0.913000000     5.545000000
C     2.450000000     0.257000000     6.025000000
H     2.196000000     0.676000000     6.995000000
C     3.255000000     1.024000000     5.270000000
O     3.481000000     2.281000000     5.760000000
C     3.853000000     3.346000000     5.020000000
C     5.085000000     3.915000000     5.259000000
H     5.733000000     3.488000000     6.020000000
C     5.512000000     5.010000000     4.488000000
H     6.473000000     5.513000000     4.564000000
C     4.574000000     5.680000000     3.730000000
H     4.930000000     6.553000000     3.189000000
C     3.316000000     5.146000000     3.492000000
C     2.930000000     4.023000000     4.192000000
H     1.908000000     3.711000000     3.989000000
C    -1.413000000     2.387000000     1.069000000
H    -2.171000000     3.167000000     1.076000000
C    -1.121000000     1.770000000    -0.148000000
H    -1.574000000     1.986000000    -1.113000000
C    -0.307000000     0.605000000    -0.165000000
H    -0.238000000     0.039000000    -1.095000000
C     0.226000000     0.088000000     1.045000000
H     0.744000000    -0.862000000     0.948000000
C    -0.052000000     0.735000000     2.252000000
H     0.150000000     0.256000000     3.206000000
C    -0.872000000     1.867000000     2.271000000
C    -1.311000000     2.506000000     3.563000000
O    -0.885000000     2.096000000     4.692000000
O    -2.104000000     3.436000000     3.585000000
O    -0.001000000     1.178000000     9.308000000
H    -0.819000000     1.476000000     9.706000000
H    -0.162000000     1.226000000     8.366000000
O    -2.310000000     4.504000000     8.575000000
H    -1.816000000     4.520000000     7.755000000
H    -1.692000000     4.818000000     9.234000000
O     1.389000000     4.209000000     7.826000000
H     0.647000000     4.325000000     7.232000000
H     1.823000000     3.415000000     7.515000000
O    -3.808000000     7.227000000     1.676000000
H    -4.344000000     7.471000000     0.921000000
H    -3.993000000     6.298000000     1.811000000
O    -4.817000000     1.799000000     0.994000000
H    -4.829000000     1.278000000     0.191000000
H    -4.300000000     1.280000000     1.610000000
O    -3.027000000     0.160000000     4.784000000
H    -2.272000000     0.654000000     5.104000000
H    -3.785000000     0.637000000     5.122000000
O    -0.576000000     4.300000000     6.052000000
H    -1.043000000     5.041000000     5.667000000
H    -0.753000000     3.570000000     5.459000000
O     1.720000000     6.787000000     6.667000000
H     1.402000000     6.753000000     7.569000000
H     1.966000000     5.885000000     6.465000000
O    -0.665000000     0.602000000     6.596000000
H    -0.763000000     1.410000000     6.093000000
H     0.016000000     0.113000000     6.134000000
O    -3.122000000     8.073000000     6.634000000
H    -3.330000000     9.005000000     6.699000000
H    -2.260000000     8.048000000     6.219000000
O    -1.889000000     6.121000000     4.149000000
H    -2.200000000     6.777000000     3.526000000
H    -2.083000000     5.282000000     3.730000000
O    -4.240000000     4.696000000     2.651000000
H    -4.786000000     3.997000000     2.294000000
H    -3.384000000     4.288000000     2.785000000
O    -4.757000000     6.940000000     4.727000000
H    -4.130000000     7.457000000     5.233000000
H    -4.224000000     6.276000000     4.290000000
O    -5.584000000    -0.483000000     3.375000000
H    -4.734000000    -0.551000000     2.938000000
H    -5.501000000    -1.041000000     4.148000000
O    -4.120000000     3.121000000     5.489000000
H    -3.437000000     3.162000000     4.820000000
H    -4.912000000     2.879000000     5.008000000
O    -4.445000000     1.614000000     7.843000000
H    -4.249000000     2.245000000     7.149000000
H    -3.642000000     1.571000000     8.362000000
O    -6.419000000     1.506000000     4.990000000
H    -5.915000000     0.810000000     4.570000000
H    -6.794000000     1.094000000     5.768000000
O    -3.180000000    -0.357000000     2.065000000
H    -2.287000000    -0.573000000     1.797000000
H    -3.116000000    -0.199000000     3.006000000
O    -0.499000000     8.376000000     6.125000000
H    -0.825000000     8.400000000     5.225000000
H     0.258000000     7.791000000     6.089000000
