215
-1465.17355
C    -4.126000000     1.297000000    -3.486000000
H    -4.176000000     0.217000000    -3.597000000
C    -2.845000000     1.861000000    -3.609000000
C    -2.681000000     3.220000000    -3.281000000
H    -1.730000000     3.747000000    -3.269000000
C    -1.604000000     1.086000000    -3.971000000
O    -2.020000000    -0.048000000    -4.696000000
H    -1.224000000     0.795000000    -2.981000000
O    -0.608000000     1.821000000    -4.666000000
C     0.725000000     1.635000000    -4.403000000
C     1.380000000     2.587000000    -3.643000000
H     0.924000000     3.528000000    -3.345000000
C     2.640000000     2.326000000    -3.189000000
O     3.114000000     3.236000000    -2.311000000
C     3.280000000     1.091000000    -3.471000000
C     4.695000000     0.867000000    -3.009000000
H     5.419000000     0.291000000    -3.590000000
C     4.657000000     0.240000000    -1.568000000
C     4.672000000    -1.165000000    -1.407000000
H     4.672000000    -1.871000000    -2.233000000
H     5.125000000     1.870000000    -2.961000000
C     2.631000000     0.129000000    -4.232000000
H     3.189000000    -0.790000000    -4.393000000
C     1.390000000     0.473000000    -4.790000000
C     0.614000000    -0.562000000    -5.612000000
H     1.264000000    -1.205000000    -6.210000000
H    -0.075000000    -0.118000000    -6.334000000
C    -0.127000000    -1.487000000    -4.715000000
C     0.516000000    -2.583000000    -4.142000000
H     1.595000000    -2.707000000    -4.193000000
C    -1.443000000    -1.211000000    -4.311000000
C    -2.159000000    -2.028000000    -3.409000000
H    -3.166000000    -1.661000000    -3.226000000
C    -1.549000000    -3.158000000    -2.922000000
O    -2.240000000    -3.945000000    -1.999000000
C    -1.882000000    -3.750000000    -0.615000000
C    -3.063000000    -3.535000000     0.296000000
C    -2.997000000    -3.929000000     1.626000000
H    -2.165000000    -4.519000000     2.003000000
C    -4.189000000    -2.846000000    -0.087000000
H    -4.275000000    -2.515000000    -1.119000000
O    -1.045000000    -4.834000000    -0.214000000
H    -1.318000000    -2.822000000    -0.444000000
C    -0.184000000    -3.402000000    -3.286000000
C     0.466000000    -4.692000000    -2.726000000
H     1.137000000    -5.096000000    -3.487000000
H    -0.307000000    -5.433000000    -2.508000000
C     1.052000000    -4.415000000    -1.402000000
C     2.408000000    -3.964000000    -1.365000000
H     3.015000000    -3.750000000    -2.242000000
C     0.324000000    -4.620000000    -0.224000000
C     0.910000000    -4.159000000     0.937000000
H     0.339000000    -4.306000000     1.850000000
C     2.230000000    -3.786000000     1.071000000
O     2.615000000    -3.341000000     2.339000000
C     2.741000000    -1.934000000     2.559000000
C     2.312000000    -1.491000000     3.955000000
C     1.207000000    -2.078000000     4.548000000
H     0.648000000    -2.760000000     3.912000000
C     2.837000000    -0.367000000     4.552000000
H     3.703000000     0.194000000     4.210000000
O     4.090000000    -1.471000000     2.219000000
H     2.039000000    -1.509000000     1.827000000
C     2.982000000    -3.685000000    -0.120000000
C     4.433000000    -3.309000000    -0.047000000
H     5.100000000    -3.814000000    -0.748000000
H     4.916000000    -3.481000000     0.917000000
C     4.489000000    -1.755000000    -0.159000000
C     4.236000000    -0.948000000     0.930000000
C     4.329000000     0.484000000     0.848000000
H     4.302000000     1.104000000     1.740000000
C     4.556000000     1.021000000    -0.419000000
O     4.537000000     2.403000000    -0.572000000
C     3.221000000     2.849000000    -0.868000000
H     2.552000000     1.986000000    -0.736000000
C     2.775000000     3.928000000     0.119000000
C     1.548000000     4.538000000    -0.153000000
H     1.007000000     4.409000000    -1.087000000
C     3.345000000     4.157000000     1.437000000
H     4.309000000     3.680000000     1.593000000
C     2.678000000     4.897000000     2.427000000
O     3.296000000     5.138000000     3.649000000
C     1.447000000     5.370000000     2.095000000
H     0.833000000     6.025000000     2.707000000
C     0.859000000     5.208000000     0.809000000
O    -0.434000000     5.686000000     0.643000000
C    -0.927000000     6.157000000    -0.575000000
C    -2.141000000     5.612000000    -1.032000000
H    -2.684000000     4.840000000    -0.491000000
C    -0.212000000     6.999000000    -1.378000000
H     0.728000000     7.370000000    -0.978000000
C    -0.661000000     7.229000000    -2.713000000
H    -0.111000000     7.857000000    -3.409000000
C    -1.946000000     6.786000000    -3.094000000
H    -2.304000000     7.000000000    -4.098000000
C    -2.689000000     5.980000000    -2.260000000
O    -3.731000000     5.342000000    -2.877000000
C    -3.797000000     3.966000000    -3.040000000
C    -5.036000000     3.463000000    -2.877000000
H    -5.853000000     4.122000000    -2.593000000
C    -5.254000000     2.071000000    -3.146000000
O    -6.565000000     1.548000000    -2.922000000
C    -6.678000000     0.261000000    -2.558000000
C    -6.426000000    -0.153000000    -1.242000000
H    -6.104000000     0.618000000    -0.547000000
C    -7.236000000    -0.619000000    -3.460000000
H    -7.476000000    -0.334000000    -4.481000000
C    -7.350000000    -1.985000000    -3.065000000
H    -7.657000000    -2.746000000    -3.779000000
C    -7.005000000    -2.410000000    -1.747000000
H    -7.129000000    -3.443000000    -1.430000000
C    -6.597000000    -1.451000000    -0.820000000
O    -6.348000000    -1.812000000     0.444000000
C    -5.215000000    -2.583000000     0.809000000
C    -5.135000000    -3.027000000     2.105000000
H    -5.980000000    -2.829000000     2.760000000
C    -3.975000000    -3.665000000     2.564000000
O    -3.944000000    -4.142000000     3.875000000
C    -2.806000000    -4.333000000     4.584000000
C    -2.135000000    -3.235000000     5.163000000
H    -2.525000000    -2.242000000     4.957000000
C    -2.131000000    -5.602000000     4.581000000
H    -2.549000000    -6.421000000     4.002000000
C    -0.939000000    -5.807000000     5.286000000
H    -0.417000000    -6.760000000     5.280000000
C    -0.318000000    -4.641000000     5.930000000
H     0.603000000    -4.824000000     6.479000000
C    -0.936000000    -3.380000000     5.884000000
O    -0.315000000    -2.281000000     6.334000000
C     0.776000000    -1.687000000     5.803000000
C     1.278000000    -0.599000000     6.388000000
H     0.667000000    -0.165000000     7.174000000
C     2.266000000     0.085000000     5.745000000
O     2.719000000     1.210000000     6.347000000
C     3.518000000     2.120000000     5.769000000
C     4.797000000     2.225000000     6.284000000
H     5.259000000     1.527000000     6.978000000
C     5.603000000     3.288000000     5.797000000
H     6.654000000     3.378000000     6.060000000
C     5.101000000     4.249000000     4.939000000
H     5.704000000     5.090000000     4.604000000
C     3.865000000     4.078000000     4.375000000
C     3.040000000     3.066000000     4.814000000
H     2.030000000     3.128000000     4.415000000
C    -0.743000000     2.171000000     1.076000000
H    -0.662000000     3.255000000     1.107000000
C    -0.583000000     1.580000000    -0.171000000
H    -0.402000000     2.178000000    -1.060000000
C    -0.566000000     0.150000000    -0.180000000
H    -0.556000000    -0.319000000    -1.149000000
C    -0.721000000    -0.548000000     0.995000000
H    -0.654000000    -1.625000000     0.859000000
C    -0.845000000     0.091000000     2.283000000
H    -0.793000000    -0.501000000     3.194000000
C    -0.861000000     1.483000000     2.302000000
C    -1.029000000     2.195000000     3.633000000
O    -1.415000000     1.512000000     4.608000000
O    -0.880000000     3.380000000     3.736000000
O    -2.706000000     3.461000000     7.823000000
H    -2.298000000     4.036000000     8.470000000
H    -3.540000000     3.209000000     8.219000000
O     1.649000000     3.155000000     8.945000000
H     1.406000000     2.319000000     9.343000000
H     1.239000000     3.136000000     8.080000000
O    -3.667000000     7.461000000     1.660000000
H    -4.273000000     7.336000000     0.930000000
H    -3.397000000     6.576000000     1.902000000
O    -7.055000000     2.989000000    -0.400000000
H    -6.186000000     2.840000000    -0.027000000
H    -7.080000000     2.434000000    -1.180000000
O    -5.801000000     0.683000000     4.003000000
H    -5.825000000     1.399000000     3.368000000
H    -5.420000000     1.072000000     4.789000000
O    -1.407000000     8.866000000     1.693000000
H    -2.331000000     8.668000000     1.540000000
H    -1.129000000     8.223000000     2.345000000
O    -0.356000000     2.873000000     6.735000000
H    -0.577000000     2.418000000     5.922000000
H    -1.199000000     3.025000000     7.161000000
O    -1.421000000     7.220000000     3.953000000
H    -1.797000000     7.968000000     4.416000000
H    -0.959000000     6.726000000     4.630000000
O    -5.362000000     3.339000000     5.862000000
H    -5.784000000     4.182000000     6.027000000
H    -4.493000000     3.566000000     5.531000000
O    -3.579000000     1.031000000     6.088000000
H    -2.804000000     0.935000000     5.533000000
H    -3.337000000     1.708000000     6.720000000
O     2.086000000     7.191000000     5.827000000
H     1.404000000     6.522000000     5.769000000
H     2.890000000     6.736000000     5.573000000
O    -4.139000000     6.324000000     5.836000000
H    -3.683000000     5.729000000     5.240000000
H    -3.474000000     6.579000000     6.475000000
O     0.225000000     5.290000000     5.218000000
H     0.342000000     4.664000000     5.932000000
H    -0.155000000     4.774000000     4.507000000
O    -3.127000000     4.630000000     2.312000000
H    -2.301000000     4.789000000     1.854000000
H    -2.893000000     4.649000000     3.240000000
O    -5.009000000    -1.456000000     5.723000000
H    -4.601000000    -0.804000000     6.292000000
H    -5.027000000    -1.043000000     4.860000000
O    -1.644000000    -0.572000000     8.726000000
H    -1.893000000    -0.147000000     7.904000000
H    -2.472000000    -0.700000000     9.189000000
O    -2.833000000     4.066000000     5.303000000
H    -2.101000000     3.709000000     4.799000000
H    -2.728000000     3.691000000     6.177000000
O    -5.722000000     3.274000000     2.985000000
H    -5.034000000     3.937000000     3.040000000
H    -6.435000000     3.623000000     3.521000000
O    -4.386000000     2.072000000     0.608000000
H    -3.558000000     1.597000000     0.680000000
H    -4.524000000     2.447000000     1.478000000
