215
-1474.22660
C    -4.583000000     1.026000000    -1.995000000
H    -4.708000000    -0.044000000    -2.140000000
C    -3.358000000     1.577000000    -2.579000000
C    -3.150000000     2.966000000    -2.371000000
H    -2.224000000     3.427000000    -2.704000000
C    -2.270000000     0.783000000    -3.239000000
O    -2.876000000    -0.422000000    -3.746000000
H    -1.508000000     0.519000000    -2.491000000
O    -1.659000000     1.495000000    -4.376000000
C    -0.306000000     1.322000000    -4.452000000
C     0.465000000     2.337000000    -3.840000000
H    -0.014000000     3.234000000    -3.456000000
C     1.848000000     2.135000000    -3.704000000
O     2.564000000     3.032000000    -2.936000000
C     2.338000000     0.826000000    -3.966000000
C     3.809000000     0.562000000    -3.918000000
H     3.935000000    -0.230000000    -4.659000000
C     4.181000000     0.119000000    -2.496000000
C     4.373000000    -1.279000000    -2.276000000
H     4.337000000    -2.009000000    -3.080000000
H     4.410000000     1.444000000    -4.153000000
C     1.548000000    -0.180000000    -4.540000000
H     1.985000000    -1.136000000    -4.818000000
C     0.168000000     0.027000000    -4.797000000
C    -0.592000000    -1.171000000    -5.367000000
H     0.132000000    -1.745000000    -5.949000000
H    -1.381000000    -0.790000000    -6.019000000
C    -1.092000000    -2.048000000    -4.224000000
C    -0.356000000    -3.166000000    -3.895000000
H     0.549000000    -3.496000000    -4.399000000
C    -2.218000000    -1.658000000    -3.488000000
C    -2.689000000    -2.446000000    -2.482000000
H    -3.533000000    -2.150000000    -1.866000000
C    -2.037000000    -3.675000000    -2.245000000
O    -2.440000000    -4.227000000    -1.121000000
C    -1.732000000    -3.800000000     0.057000000
C    -2.745000000    -3.562000000     1.175000000
C    -2.348000000    -3.585000000     2.534000000
H    -1.306000000    -3.725000000     2.810000000
C    -4.070000000    -3.315000000     0.878000000
H    -4.456000000    -3.388000000    -0.136000000
O    -0.756000000    -4.762000000     0.494000000
H    -1.220000000    -2.852000000    -0.163000000
C    -0.841000000    -3.945000000    -2.827000000
C     0.034000000    -5.065000000    -2.365000000
H     0.617000000    -5.390000000    -3.229000000
H    -0.685000000    -5.838000000    -2.087000000
C     0.960000000    -4.612000000    -1.150000000
C     2.295000000    -4.267000000    -1.417000000
H     2.736000000    -4.338000000    -2.408000000
C     0.521000000    -4.561000000     0.176000000
C     1.303000000    -4.174000000     1.228000000
H     0.949000000    -4.200000000     2.255000000
C     2.600000000    -3.738000000     0.935000000
O     3.332000000    -3.234000000     1.955000000
C     3.474000000    -1.789000000     1.951000000
C     3.257000000    -1.245000000     3.357000000
C     2.496000000    -1.981000000     4.331000000
H     2.011000000    -2.919000000     4.073000000
C     3.696000000     0.025000000     3.639000000
H     4.191000000     0.654000000     2.904000000
O     4.740000000    -1.450000000     1.346000000
H     2.631000000    -1.430000000     1.342000000
C     3.120000000    -3.778000000    -0.357000000
C     4.484000000    -3.310000000    -0.767000000
H     4.859000000    -3.816000000    -1.659000000
H     5.217000000    -3.659000000    -0.037000000
C     4.583000000    -1.840000000    -0.984000000
C     4.624000000    -0.942000000     0.101000000
C     4.481000000     0.437000000    -0.105000000
H     4.522000000     1.132000000     0.730000000
C     4.354000000     0.972000000    -1.371000000
O     4.110000000     2.343000000    -1.410000000
C     2.721000000     2.787000000    -1.505000000
H     2.144000000     1.910000000    -1.175000000
C     2.366000000     3.964000000    -0.613000000
C     1.538000000     4.966000000    -1.151000000
H     1.141000000     4.782000000    -2.146000000
C     2.733000000     4.065000000     0.696000000
H     3.372000000     3.304000000     1.135000000
C     2.276000000     5.137000000     1.467000000
O     2.707000000     5.245000000     2.773000000
C     1.469000000     6.109000000     0.891000000
H     1.002000000     6.871000000     1.510000000
C     1.142000000     6.064000000    -0.455000000
O     0.472000000     7.197000000    -1.006000000
C    -0.690000000     6.911000000    -1.736000000
C    -1.633000000     6.109000000    -1.120000000
H    -1.441000000     5.690000000    -0.136000000
C    -0.899000000     7.398000000    -3.022000000
H    -0.158000000     7.998000000    -3.543000000
C    -2.070000000     6.943000000    -3.693000000
H    -2.180000000     7.370000000    -4.686000000
C    -2.991000000     6.172000000    -3.063000000
H    -3.886000000     5.865000000    -3.598000000
C    -2.826000000     5.743000000    -1.752000000
O    -3.706000000     4.960000000    -1.101000000
C    -3.951000000     3.659000000    -1.501000000
C    -5.133000000     3.142000000    -0.977000000
H    -5.755000000     3.759000000    -0.334000000
C    -5.435000000     1.791000000    -1.224000000
O    -6.568000000     1.279000000    -0.661000000
C    -6.907000000    -0.023000000    -0.767000000
C    -6.334000000    -0.849000000     0.261000000
H    -5.703000000    -0.381000000     1.013000000
C    -7.834000000    -0.610000000    -1.628000000
H    -8.344000000     0.006000000    -2.365000000
C    -8.133000000    -2.001000000    -1.580000000
H    -8.664000000    -2.477000000    -2.401000000
C    -7.607000000    -2.773000000    -0.551000000
H    -7.905000000    -3.818000000    -0.565000000
C    -6.665000000    -2.193000000     0.319000000
O    -6.314000000    -2.903000000     1.523000000
C    -4.997000000    -3.006000000     1.885000000
C    -4.583000000    -2.888000000     3.224000000
H    -5.171000000    -2.664000000     4.111000000
C    -3.265000000    -3.177000000     3.542000000
O    -2.805000000    -2.981000000     4.793000000
C    -1.552000000    -3.431000000     5.230000000
C    -0.624000000    -2.530000000     5.840000000
H    -0.841000000    -1.466000000     5.788000000
C    -1.231000000    -4.776000000     5.333000000
H    -1.843000000    -5.549000000     4.875000000
C    -0.013000000    -5.274000000     5.737000000
H     0.236000000    -6.332000000     5.713000000
C     0.944000000    -4.357000000     6.173000000
H     1.961000000    -4.651000000     6.418000000
C     0.590000000    -3.035000000     6.326000000
O     1.572000000    -2.082000000     6.589000000
C     2.197000000    -1.369000000     5.596000000
C     2.857000000    -0.181000000     5.895000000
H     2.684000000     0.380000000     6.809000000
C     3.581000000     0.537000000     4.947000000
O     4.295000000     1.684000000     5.329000000
C     4.596000000     2.709000000     4.553000000
C     5.905000000     2.993000000     4.225000000
H     6.729000000     2.469000000     4.702000000
C     6.163000000     4.017000000     3.285000000
H     7.183000000     4.146000000     2.932000000
C     5.112000000     4.795000000     2.797000000
H     5.386000000     5.469000000     1.989000000
C     3.806000000     4.541000000     3.285000000
C     3.534000000     3.507000000     4.108000000
H     2.494000000     3.328000000     4.369000000
C    -0.295000000     2.643000000     2.438000000
H    -0.415000000     3.679000000     2.743000000
C    -0.342000000     2.404000000     1.013000000
H    -0.562000000     3.262000000     0.382000000
C    -0.362000000     1.169000000     0.570000000
H    -0.508000000     0.996000000    -0.478000000
C    -0.234000000     0.068000000     1.435000000
H    -0.090000000    -0.966000000     1.130000000
C    -0.084000000     0.301000000     2.816000000
H    -0.012000000    -0.578000000     3.452000000
C    -0.164000000     1.613000000     3.329000000
C    -0.316000000     1.842000000     4.815000000
O    -0.767000000     0.931000000     5.513000000
O     0.148000000     2.834000000     5.402000000
O    -1.299000000     3.648000000     9.857000000
H    -0.379000000     3.910000000     9.816000000
H    -1.784000000     4.474000000     9.845000000
O    -3.793000000     1.815000000     8.373000000
H    -3.151000000     1.791000000     9.082000000
H    -4.630000000     1.965000000     8.813000000
O     4.451000000     3.208000000     7.802000000
H     3.500000000     3.316000000     7.796000000
H     4.586000000     2.265000000     7.709000000
O    -1.446000000     6.637000000     2.469000000
H    -0.901000000     6.347000000     3.200000000
H    -2.250000000     6.123000000     2.550000000
O    -5.455000000     2.934000000     2.498000000
H    -5.344000000     3.038000000     3.443000000
H    -4.678000000     2.450000000     2.217000000
O    -3.282000000     0.283000000     6.053000000
H    -3.369000000     0.985000000     6.698000000
H    -2.369000000     0.328000000     5.771000000
O     1.627000000     3.491000000     7.821000000
H     1.332000000     3.166000000     6.970000000
H     1.282000000     4.382000000     7.870000000
O    -4.768000000     3.280000000     5.206000000
H    -3.834000000     3.203000000     5.400000000
H    -5.203000000     3.034000000     6.023000000
O     0.193000000     0.218000000     7.977000000
H     0.604000000    -0.539000000     7.560000000
H    -0.143000000     0.740000000     7.248000000
O     2.407000000     6.657000000     6.303000000
H     1.812000000     6.171000000     5.731000000
H     2.206000000     7.577000000     6.131000000
O     0.217000000     5.908000000     8.067000000
H    -0.581000000     5.997000000     7.546000000
H     0.425000000     6.801000000     8.341000000
O     0.154000000     5.482000000     4.948000000
H    -0.655000000     5.746000000     5.385000000
H     0.294000000     4.578000000     5.229000000
O    -3.349000000     4.914000000     2.904000000
H    -4.285000000     4.800000000     3.069000000
H    -3.040000000     4.041000000     2.662000000
O    -1.350000000     0.854000000    10.066000000
H    -1.423000000     1.796000000    10.216000000
H    -0.532000000     0.751000000     9.579000000
O    -5.784000000    -0.303000000     4.739000000
H    -6.015000000    -0.574000000     5.627000000
H    -4.959000000     0.171000000     4.840000000
O    -2.165000000     3.948000000     6.299000000
H    -1.381000000     3.562000000     5.909000000
H    -2.192000000     3.590000000     7.187000000
O    -1.868000000     6.728000000     6.443000000
H    -2.586000000     6.101000000     6.529000000
H    -2.302000000     7.567000000     6.284000000
O    -3.191000000     1.535000000     2.222000000
H    -2.893000000     0.637000000     2.369000000
H    -2.444000000     1.971000000     1.812000000
O     2.207000000     1.243000000     9.897000000
H     1.487000000     1.744000000     9.513000000
H     1.914000000     0.333000000     9.859000000
