215
-1449.99112
C    -4.891000000     1.394000000    -2.329000000
H    -5.055000000     0.320000000    -2.359000000
C    -3.669000000     1.909000000    -2.807000000
C    -3.459000000     3.262000000    -2.791000000
H    -2.576000000     3.688000000    -3.260000000
C    -2.620000000     0.925000000    -3.343000000
O    -3.177000000    -0.331000000    -3.795000000
H    -1.892000000     0.593000000    -2.589000000
O    -1.917000000     1.500000000    -4.488000000
C    -0.575000000     1.275000000    -4.524000000
C     0.283000000     2.223000000    -4.052000000
H    -0.029000000     3.153000000    -3.583000000
C     1.610000000     1.942000000    -3.880000000
O     2.293000000     2.871000000    -3.210000000
C     2.169000000     0.683000000    -4.344000000
C     3.591000000     0.219000000    -4.254000000
H     3.850000000    -0.489000000    -5.045000000
C     3.947000000    -0.300000000    -2.883000000
C     4.030000000    -1.608000000    -2.632000000
H     3.836000000    -2.296000000    -3.451000000
H     4.214000000     1.073000000    -4.526000000
C     1.311000000    -0.228000000    -4.910000000
H     1.687000000    -1.208000000    -5.192000000
C    -0.044000000     0.019000000    -5.012000000
C    -0.947000000    -1.128000000    -5.447000000
H    -0.354000000    -1.799000000    -6.072000000
H    -1.768000000    -0.577000000    -5.910000000
C    -1.481000000    -1.886000000    -4.197000000
C    -0.924000000    -3.105000000    -3.826000000
H    -0.073000000    -3.524000000    -4.356000000
C    -2.533000000    -1.442000000    -3.430000000
C    -2.949000000    -2.099000000    -2.266000000
H    -3.690000000    -1.576000000    -1.666000000
C    -2.408000000    -3.362000000    -1.970000000
O    -2.856000000    -4.014000000    -0.914000000
C    -2.189000000    -3.748000000     0.319000000
C    -3.154000000    -3.696000000     1.463000000
C    -2.683000000    -4.011000000     2.729000000
H    -1.785000000    -4.590000000     2.929000000
C    -4.265000000    -2.799000000     1.315000000
H    -4.546000000    -2.499000000     0.309000000
O    -1.201000000    -4.787000000     0.623000000
H    -1.667000000    -2.781000000     0.262000000
C    -1.345000000    -3.854000000    -2.717000000
C    -0.448000000    -4.996000000    -2.237000000
H     0.021000000    -5.460000000    -3.107000000
H    -1.142000000    -5.743000000    -1.848000000
C     0.476000000    -4.606000000    -1.175000000
C     1.807000000    -4.288000000    -1.584000000
H     1.926000000    -4.138000000    -2.654000000
C     0.082000000    -4.625000000     0.127000000
C     1.018000000    -4.224000000     1.072000000
H     0.714000000    -4.128000000     2.111000000
C     2.379000000    -3.936000000     0.729000000
O     3.187000000    -3.307000000     1.722000000
C     3.200000000    -1.862000000     1.737000000
C     3.227000000    -1.255000000     3.060000000
C     2.350000000    -1.806000000     3.969000000
H     1.769000000    -2.699000000     3.754000000
C     4.064000000    -0.173000000     3.404000000
H     4.817000000     0.179000000     2.703000000
O     4.382000000    -1.419000000     1.016000000
H     2.354000000    -1.444000000     1.172000000
C     2.783000000    -3.897000000    -0.653000000
C     4.134000000    -3.488000000    -1.093000000
H     4.373000000    -3.999000000    -2.028000000
H     4.961000000    -3.744000000    -0.427000000
C     4.229000000    -2.019000000    -1.327000000
C     4.395000000    -1.063000000    -0.320000000
C     4.372000000     0.272000000    -0.624000000
H     4.430000000     0.989000000     0.191000000
C     4.190000000     0.695000000    -1.886000000
O     4.092000000     2.062000000    -2.065000000
C     2.833000000     2.616000000    -1.924000000
H     2.217000000     1.763000000    -1.603000000
C     2.706000000     3.811000000    -0.921000000
C     1.504000000     4.466000000    -0.773000000
H     0.747000000     4.154000000    -1.488000000
C     3.641000000     3.956000000     0.077000000
H     4.581000000     3.411000000     0.057000000
C     3.424000000     4.856000000     1.131000000
O     4.381000000     5.187000000     2.067000000
C     2.279000000     5.622000000     1.165000000
H     2.060000000     6.352000000     1.940000000
C     1.268000000     5.399000000     0.239000000
O     0.160000000     6.233000000     0.261000000
C    -0.668000000     6.314000000    -0.878000000
C    -1.979000000     5.874000000    -0.759000000
H    -2.311000000     5.406000000     0.164000000
C    -0.210000000     6.933000000    -2.044000000
H     0.816000000     7.289000000    -2.005000000
C    -1.054000000     6.863000000    -3.196000000
H    -0.747000000     7.283000000    -4.151000000
C    -2.416000000     6.605000000    -3.052000000
H    -3.088000000     6.601000000    -3.907000000
C    -2.883000000     6.015000000    -1.866000000
O    -4.084000000     5.367000000    -1.768000000
C    -4.399000000     4.084000000    -2.111000000
C    -5.520000000     3.498000000    -1.524000000
H    -6.158000000     4.139000000    -0.921000000
C    -5.741000000     2.152000000    -1.641000000
O    -6.910000000     1.733000000    -1.084000000
C    -7.167000000     0.486000000    -0.589000000
C    -6.545000000     0.199000000     0.669000000
H    -6.019000000     0.941000000     1.265000000
C    -7.926000000    -0.497000000    -1.309000000
H    -8.466000000    -0.178000000    -2.197000000
C    -8.097000000    -1.745000000    -0.654000000
H    -8.652000000    -2.513000000    -1.186000000
C    -7.454000000    -2.011000000     0.551000000
H    -7.604000000    -3.019000000     0.928000000
C    -6.683000000    -1.067000000     1.250000000
O    -6.043000000    -1.417000000     2.398000000
C    -5.039000000    -2.362000000     2.428000000
C    -4.571000000    -2.833000000     3.683000000
H    -5.048000000    -2.299000000     4.501000000
C    -3.418000000    -3.593000000     3.848000000
O    -2.864000000    -3.742000000     5.097000000
C    -1.547000000    -3.879000000     5.354000000
C    -0.763000000    -2.709000000     5.501000000
H    -1.112000000    -1.698000000     5.306000000
C    -0.997000000    -5.106000000     5.645000000
H    -1.586000000    -6.016000000     5.562000000
C     0.338000000    -5.221000000     5.990000000
H     0.827000000    -6.157000000     6.247000000
C     1.105000000    -4.023000000     6.350000000
H     2.121000000    -4.094000000     6.730000000
C     0.544000000    -2.812000000     6.048000000
O     1.271000000    -1.663000000     6.082000000
C     2.187000000    -1.165000000     5.174000000
C     2.997000000    -0.085000000     5.516000000
H     2.861000000     0.407000000     6.476000000
C     3.978000000     0.380000000     4.675000000
O     4.771000000     1.408000000     5.055000000
C     5.356000000     2.319000000     4.249000000
C     6.701000000     2.632000000     4.374000000
H     7.215000000     2.041000000     5.127000000
C     7.328000000     3.667000000     3.740000000
H     8.373000000     3.896000000     3.936000000
C     6.543000000     4.556000000     3.020000000
H     7.058000000     5.445000000     2.666000000
C     5.168000000     4.255000000     2.765000000
C     4.634000000     3.131000000     3.358000000
H     3.566000000     2.962000000     3.240000000
C    -1.323000000     2.540000000     1.542000000
H    -2.080000000     3.259000000     1.846000000
C    -1.573000000     1.752000000     0.357000000
H    -2.423000000     1.885000000    -0.307000000
C    -0.638000000     0.715000000     0.036000000
H    -0.791000000     0.065000000    -0.810000000
C     0.521000000     0.619000000     0.797000000
H     1.334000000    -0.047000000     0.522000000
C     0.724000000     1.422000000     1.928000000
H     1.521000000     1.166000000     2.622000000
C    -0.206000000     2.395000000     2.329000000
C     0.071000000     3.125000000     3.641000000
O     0.888000000     2.747000000     4.388000000
O    -0.781000000     3.943000000     3.923000000
O    -0.166000000     3.618000000     9.089000000
H     0.757000000     3.447000000     9.274000000
H    -0.174000000     4.491000000     8.697000000
O     2.766000000     3.139000000     6.138000000
H     2.043000000     3.121000000     5.512000000
H     3.052000000     2.227000000     6.200000000
O    -2.740000000     7.660000000     4.538000000
H    -3.360000000     7.469000000     5.242000000
H    -3.060000000     8.476000000     4.153000000
O    -2.692000000     5.430000000     2.765000000
H    -2.611000000     6.189000000     3.343000000
H    -2.267000000     4.718000000     3.244000000
O    -3.262000000    -0.140000000     5.413000000
H    -3.728000000     0.466000000     5.990000000
H    -2.345000000    -0.064000000     5.678000000
O     0.609000000     5.598000000     6.822000000
H     0.264000000     5.949000000     6.001000000
H     1.061000000     4.793000000     6.566000000
O     1.311000000     8.429000000     3.053000000
H     0.682000000     8.001000000     3.634000000
H     2.153000000     8.330000000     3.496000000
O    -5.175000000     4.560000000     5.312000000
H    -4.329000000     4.842000000     5.659000000
H    -5.510000000     3.947000000     5.966000000
O    -0.314000000     1.295000000     6.363000000
H     0.368000000     1.402000000     7.026000000
H     0.010000000     1.781000000     5.605000000
O     1.268000000     6.754000000     9.081000000
H     1.805000000     7.544000000     9.018000000
H     1.176000000     6.455000000     8.176000000
O    -0.388000000     6.498000000     4.427000000
H    -1.238000000     6.870000000     4.663000000
H    -0.576000000     5.582000000     4.224000000
O    -4.862000000     6.655000000     1.552000000
H    -4.250000000     6.089000000     2.022000000
H    -5.657000000     6.644000000     2.085000000
O    -2.778000000     1.906000000     7.376000000
H    -2.899000000     2.819000000     7.114000000
H    -1.840000000     1.749000000     7.272000000
O     1.448000000     0.159000000     8.314000000
H     1.191000000    -0.488000000     7.658000000
H     0.845000000     0.012000000     9.043000000
O    -5.933000000     2.577000000     3.478000000
H    -5.121000000     2.140000000     3.222000000
H    -5.661000000     3.220000000     4.134000000
O     4.102000000     5.572000000     6.661000000
H     3.743000000     4.764000000     6.295000000
H     4.165000000     5.402000000     7.600000000
O    -2.270000000     4.438000000     6.189000000
H    -1.607000000     4.294000000     5.514000000
H    -1.961000000     5.206000000     6.669000000
O    -3.809000000     0.957000000     3.035000000
H    -3.649000000     0.543000000     3.883000000
H    -3.292000000     0.442000000     2.415000000
O     2.317000000     2.653000000     9.438000000
H     2.274000000     1.960000000     8.779000000
H     2.358000000     2.187000000    10.273000000
