215
-1443.67712
C    -4.472000000     1.749000000    -1.356000000
H    -4.886000000     0.746000000    -1.300000000
C    -3.484000000     2.069000000    -2.282000000
C    -3.086000000     3.432000000    -2.421000000
H    -2.356000000     3.798000000    -3.138000000
C    -2.732000000     0.963000000    -3.055000000
O    -3.563000000    -0.136000000    -3.438000000
H    -2.060000000     0.554000000    -2.286000000
O    -2.065000000     1.433000000    -4.218000000
C    -0.791000000     0.979000000    -4.457000000
C     0.267000000     1.876000000    -4.180000000
H    -0.003000000     2.864000000    -3.815000000
C     1.552000000     1.472000000    -4.169000000
O     2.473000000     2.373000000    -3.665000000
C     1.803000000     0.156000000    -4.492000000
C     3.296000000    -0.249000000    -4.503000000
H     3.502000000    -1.000000000    -5.268000000
C     3.854000000    -0.774000000    -3.204000000
C     3.710000000    -2.102000000    -2.867000000
H     3.411000000    -2.799000000    -3.646000000
H     3.859000000     0.506000000    -5.056000000
C     0.792000000    -0.680000000    -4.931000000
H     1.025000000    -1.693000000    -5.248000000
C    -0.492000000    -0.325000000    -4.818000000
C    -1.551000000    -1.357000000    -5.182000000
H    -1.046000000    -2.102000000    -5.801000000
H    -2.308000000    -0.874000000    -5.802000000
C    -2.155000000    -2.100000000    -4.028000000
C    -1.590000000    -3.313000000    -3.639000000
H    -0.890000000    -3.795000000    -4.317000000
C    -3.061000000    -1.389000000    -3.154000000
C    -3.301000000    -1.865000000    -1.900000000
H    -4.098000000    -1.487000000    -1.265000000
C    -2.862000000    -3.124000000    -1.587000000
O    -3.299000000    -3.704000000    -0.426000000
C    -2.457000000    -3.376000000     0.680000000
C    -3.163000000    -2.946000000     1.984000000
C    -2.524000000    -3.062000000     3.274000000
H    -1.492000000    -3.401000000     3.240000000
C    -4.292000000    -2.140000000     1.927000000
H    -4.788000000    -1.838000000     1.008000000
O    -1.573000000    -4.553000000     0.864000000
H    -1.930000000    -2.449000000     0.409000000
C    -1.933000000    -3.812000000    -2.429000000
C    -1.185000000    -5.057000000    -2.000000000
H    -0.778000000    -5.602000000    -2.855000000
H    -1.885000000    -5.651000000    -1.409000000
C    -0.048000000    -4.715000000    -1.025000000
C     1.250000000    -4.530000000    -1.538000000
H     1.422000000    -4.595000000    -2.609000000
C    -0.284000000    -4.459000000     0.316000000
C     0.718000000    -4.109000000     1.156000000
H     0.532000000    -4.053000000     2.225000000
C     2.000000000    -3.984000000     0.687000000
O     3.039000000    -3.725000000     1.576000000
C     3.425000000    -2.320000000     1.644000000
C     3.587000000    -1.771000000     3.098000000
C     3.027000000    -2.502000000     4.183000000
H     2.787000000    -3.544000000     3.988000000
C     3.971000000    -0.416000000     3.275000000
H     4.267000000     0.215000000     2.441000000
O     4.591000000    -2.002000000     0.776000000
H     2.628000000    -1.740000000     1.156000000
C     2.332000000    -4.234000000    -0.705000000
C     3.754000000    -4.068000000    -1.172000000
H     3.966000000    -4.724000000    -2.019000000
H     4.425000000    -4.397000000    -0.376000000
C     3.961000000    -2.600000000    -1.579000000
C     4.373000000    -1.691000000    -0.586000000
C     4.450000000    -0.330000000    -0.918000000
H     4.538000000     0.443000000    -0.158000000
C     4.274000000     0.179000000    -2.201000000
O     4.162000000     1.529000000    -2.359000000
C     2.891000000     2.229000000    -2.283000000
H     2.121000000     1.621000000    -1.786000000
C     2.931000000     3.524000000    -1.536000000
C     2.196000000     4.648000000    -1.953000000
H     1.707000000     4.621000000    -2.923000000
C     3.845000000     3.625000000    -0.432000000
H     4.419000000     2.776000000    -0.070000000
C     3.740000000     4.824000000     0.354000000
O     4.349000000     4.969000000     1.586000000
C     2.930000000     5.818000000    -0.109000000
H     2.842000000     6.660000000     0.573000000
C     2.132000000     5.830000000    -1.250000000
O     1.338000000     6.929000000    -1.544000000
C     0.121000000     6.954000000    -2.239000000
C    -0.976000000     6.381000000    -1.642000000
H    -0.842000000     6.014000000    -0.628000000
C     0.027000000     7.376000000    -3.544000000
H     0.794000000     7.782000000    -4.199000000
C    -1.134000000     7.250000000    -4.196000000
H    -1.244000000     7.556000000    -5.233000000
C    -2.236000000     6.621000000    -3.725000000
H    -3.166000000     6.546000000    -4.284000000
C    -2.189000000     6.281000000    -2.333000000
O    -3.247000000     5.726000000    -1.601000000
C    -3.660000000     4.380000000    -1.579000000
C    -4.781000000     4.034000000    -0.776000000
H    -5.335000000     4.813000000    -0.260000000
C    -5.196000000     2.734000000    -0.768000000
O    -6.387000000     2.491000000    -0.145000000
C    -6.825000000     1.265000000     0.307000000
C    -6.314000000     0.749000000     1.531000000
H    -5.578000000     1.346000000     2.064000000
C    -7.753000000     0.547000000    -0.352000000
H    -8.142000000     0.983000000    -1.269000000
C    -8.137000000    -0.676000000     0.068000000
H    -8.914000000    -1.226000000    -0.456000000
C    -7.604000000    -1.228000000     1.198000000
H    -7.884000000    -2.253000000     1.424000000
C    -6.630000000    -0.502000000     1.963000000
O    -6.057000000    -1.138000000     3.045000000
C    -4.849000000    -1.742000000     3.106000000
C    -4.318000000    -2.003000000     4.352000000
H    -4.777000000    -1.669000000     5.278000000
C    -3.080000000    -2.636000000     4.442000000
O    -2.441000000    -2.706000000     5.674000000
C    -1.234000000    -3.303000000     5.934000000
C    -0.025000000    -2.594000000     5.945000000
H     0.102000000    -1.562000000     5.629000000
C    -1.294000000    -4.567000000     6.345000000
H    -2.220000000    -5.136000000     6.353000000
C    -0.192000000    -5.259000000     6.774000000
H    -0.234000000    -6.301000000     7.080000000
C     1.041000000    -4.636000000     6.840000000
H     1.949000000    -5.052000000     7.269000000
C     1.154000000    -3.257000000     6.361000000
O     2.382000000    -2.650000000     6.395000000
C     2.867000000    -1.899000000     5.430000000
C     3.310000000    -0.571000000     5.620000000
H     3.281000000    -0.150000000     6.622000000
C     3.916000000     0.160000000     4.594000000
O     4.387000000     1.453000000     4.828000000
C     5.070000000     2.113000000     3.821000000
C     6.417000000     1.939000000     3.652000000
H     6.916000000     1.140000000     4.195000000
C     7.072000000     2.706000000     2.639000000
H     8.150000000     2.638000000     2.516000000
C     6.345000000     3.712000000     1.954000000
H     6.898000000     4.288000000     1.217000000
C     5.022000000     3.972000000     2.244000000
C     4.391000000     3.211000000     3.236000000
H     3.366000000     3.378000000     3.555000000
C     0.429000000     2.552000000     0.844000000
H     0.364000000     3.606000000     0.584000000
C     0.243000000     1.571000000    -0.137000000
H     0.148000000     1.747000000    -1.205000000
C     0.173000000     0.212000000     0.267000000
H     0.077000000    -0.550000000    -0.494000000
C     0.202000000    -0.123000000     1.614000000
H     0.210000000    -1.173000000     1.897000000
C     0.455000000     0.810000000     2.596000000
H     0.465000000     0.447000000     3.621000000
C     0.552000000     2.186000000     2.199000000
C     0.448000000     3.276000000     3.247000000
O     0.279000000     2.964000000     4.394000000
O     0.344000000     4.449000000     2.969000000
O    -0.260000000     5.063000000     7.223000000
H     0.154000000     4.235000000     7.469000000
H     0.472000000     5.651000000     7.037000000
O     2.035000000     2.925000000     6.133000000
H     1.373000000     3.090000000     5.461000000
H     2.449000000     2.105000000     5.865000000
O    -0.804000000     8.986000000     3.283000000
H    -1.041000000     8.877000000     4.204000000
H    -0.545000000     9.905000000     3.210000000
O     3.226000000     1.695000000     8.440000000
H     3.294000000     1.356000000     9.332000000
H     2.563000000     2.383000000     8.495000000
O    -2.276000000     8.060000000     1.103000000
H    -1.945000000     8.547000000     1.857000000
H    -1.896000000     7.187000000     1.195000000
O    -2.954000000     2.801000000     2.214000000
H    -2.799000000     3.698000000     1.917000000
H    -2.157000000     2.328000000     1.976000000
O     1.972000000     7.281000000     6.174000000
H     1.844000000     7.133000000     5.237000000
H     2.921000000     7.344000000     6.280000000
O     2.442000000     9.033000000     2.023000000
H     2.066000000     8.328000000     2.550000000
H     3.026000000     9.496000000     2.624000000
O    -2.737000000     5.759000000     8.159000000
H    -2.516000000     5.461000000     9.041000000
H    -2.017000000     5.443000000     7.613000000
O    -4.099000000     4.103000000     4.673000000
H    -4.593000000     4.546000000     3.983000000
H    -3.183000000     4.291000000     4.471000000
O    -0.911000000     0.746000000     5.540000000
H    -1.828000000     0.730000000     5.265000000
H    -0.539000000     1.505000000     5.091000000
O    -4.879000000     4.052000000     7.268000000
H    -4.180000000     4.608000000     7.612000000
H    -4.668000000     3.948000000     6.340000000
O     1.541000000     7.060000000     3.483000000
H     0.635000000     7.291000000     3.274000000
H     1.592000000     6.119000000     3.318000000
O    -0.245000000     0.006000000     7.891000000
H    -0.652000000     0.669000000     8.448000000
H    -0.507000000     0.247000000     7.002000000
O    -3.595000000     1.274000000     4.810000000
H    -3.969000000     0.685000000     4.155000000
H    -3.859000000     2.149000000     4.524000000
O     4.323000000     4.581000000     6.520000000
H     3.572000000     4.026000000     6.308000000
H     4.016000000     5.134000000     7.239000000
O    -1.315000000     5.593000000     4.712000000
H    -0.764000000     5.082000000     4.119000000
H    -1.046000000     5.314000000     5.588000000
O    -1.538000000     8.108000000     5.814000000
H    -1.639000000     7.291000000     5.326000000
H    -2.398000000     8.259000000     6.207000000
O    -1.905000000     5.504000000     1.973000000
H    -2.087000000     5.590000000     2.909000000
H    -0.998000000     5.199000000     1.932000000
