215
-1464.98491
C    -4.578000000     1.956000000    -1.991000000
H    -5.160000000     1.049000000    -2.130000000
C    -3.266000000     2.041000000    -2.476000000
C    -2.508000000     3.159000000    -2.064000000
H    -1.450000000     3.262000000    -2.292000000
C    -2.613000000     0.860000000    -3.079000000
O    -3.476000000    -0.197000000    -3.502000000
H    -1.936000000     0.494000000    -2.294000000
O    -1.751000000     1.254000000    -4.221000000
C    -0.554000000     0.585000000    -4.314000000
C     0.542000000     1.399000000    -3.914000000
H     0.409000000     2.382000000    -3.470000000
C     1.818000000     0.891000000    -4.085000000
O     2.865000000     1.714000000    -3.742000000
C     1.977000000    -0.442000000    -4.361000000
C     3.350000000    -1.121000000    -4.213000000
H     3.331000000    -2.082000000    -4.732000000
C     3.898000000    -1.355000000    -2.825000000
C     3.601000000    -2.645000000    -2.284000000
H     3.039000000    -3.354000000    -2.886000000
H     4.107000000    -0.522000000    -4.724000000
C     0.885000000    -1.175000000    -4.838000000
H     1.054000000    -2.172000000    -5.235000000
C    -0.322000000    -0.657000000    -4.822000000
C    -1.463000000    -1.499000000    -5.215000000
H    -1.095000000    -2.207000000    -5.961000000
H    -2.215000000    -0.897000000    -5.730000000
C    -2.046000000    -2.133000000    -3.990000000
C    -1.423000000    -3.248000000    -3.431000000
H    -0.583000000    -3.742000000    -3.914000000
C    -3.056000000    -1.448000000    -3.276000000
C    -3.611000000    -2.043000000    -2.137000000
H    -4.406000000    -1.597000000    -1.545000000
C    -3.057000000    -3.249000000    -1.650000000
O    -3.467000000    -3.810000000    -0.486000000
C    -2.710000000    -3.417000000     0.729000000
C    -3.617000000    -2.913000000     1.935000000
C    -3.298000000    -3.096000000     3.274000000
H    -2.437000000    -3.726000000     3.484000000
C    -4.627000000    -1.982000000     1.695000000
H    -4.843000000    -1.661000000     0.679000000
O    -1.834000000    -4.492000000     1.139000000
H    -2.102000000    -2.522000000     0.531000000
C    -1.877000000    -3.791000000    -2.247000000
C    -1.319000000    -5.087000000    -1.614000000
H    -0.986000000    -5.784000000    -2.386000000
H    -2.067000000    -5.667000000    -1.069000000
C    -0.210000000    -4.780000000    -0.629000000
C     1.111000000    -4.843000000    -0.992000000
H     1.472000000    -5.012000000    -2.003000000
C    -0.584000000    -4.550000000     0.722000000
C     0.455000000    -4.321000000     1.687000000
H     0.169000000    -3.885000000     2.642000000
C     1.797000000    -4.308000000     1.316000000
O     2.670000000    -3.611000000     2.194000000
C     3.092000000    -2.265000000     1.833000000
C     3.137000000    -1.415000000     3.092000000
C     2.117000000    -1.586000000     3.987000000
H     1.467000000    -2.455000000     3.929000000
C     3.870000000    -0.249000000     3.128000000
H     4.561000000    -0.032000000     2.317000000
O     4.488000000    -2.251000000     1.210000000
H     2.427000000    -1.835000000     1.070000000
C     2.053000000    -4.567000000    -0.023000000
C     3.503000000    -4.415000000    -0.536000000
H     3.726000000    -5.073000000    -1.379000000
H     4.111000000    -4.873000000     0.247000000
C     3.846000000    -2.966000000    -0.956000000
C     4.482000000    -2.030000000    -0.132000000
C     4.811000000    -0.756000000    -0.697000000
H     5.193000000    -0.017000000     0.003000000
C     4.429000000    -0.373000000    -1.988000000
O     4.606000000     0.937000000    -2.318000000
C     3.389000000     1.643000000    -2.361000000
H     2.614000000     1.108000000    -1.791000000
C     3.592000000     3.033000000    -1.727000000
C     2.744000000     4.122000000    -2.082000000
H     2.044000000     3.955000000    -2.896000000
C     4.573000000     3.223000000    -0.775000000
H     5.237000000     2.418000000    -0.471000000
C     4.593000000     4.481000000    -0.119000000
O     5.553000000     4.810000000     0.809000000
C     3.694000000     5.463000000    -0.439000000
H     3.863000000     6.434000000     0.019000000
C     2.719000000     5.347000000    -1.417000000
O     2.089000000     6.453000000    -1.880000000
C     0.769000000     6.564000000    -2.146000000
C    -0.225000000     5.833000000    -1.421000000
H     0.029000000     5.068000000    -0.692000000
C     0.391000000     7.545000000    -3.084000000
H     1.130000000     8.151000000    -3.603000000
C    -0.957000000     7.569000000    -3.485000000
H    -1.279000000     8.173000000    -4.329000000
C    -1.954000000     6.868000000    -2.807000000
H    -2.991000000     6.953000000    -3.123000000
C    -1.584000000     5.969000000    -1.767000000
O    -2.427000000     5.342000000    -0.926000000
C    -3.096000000     4.161000000    -1.244000000
C    -4.426000000     4.067000000    -0.936000000
H    -4.813000000     4.955000000    -0.443000000
C    -5.199000000     2.952000000    -1.222000000
O    -6.440000000     2.779000000    -0.733000000
C    -6.873000000     1.538000000    -0.275000000
C    -6.351000000     1.072000000     0.960000000
H    -5.516000000     1.607000000     1.405000000
C    -7.926000000     0.859000000    -0.959000000
H    -8.360000000     1.369000000    -1.816000000
C    -8.378000000    -0.385000000    -0.435000000
H    -9.072000000    -1.054000000    -0.937000000
C    -7.847000000    -0.835000000     0.830000000
H    -8.109000000    -1.796000000     1.266000000
C    -6.844000000    -0.114000000     1.506000000
O    -6.459000000    -0.620000000     2.695000000
C    -5.432000000    -1.598000000     2.770000000
C    -5.127000000    -1.863000000     4.065000000
H    -5.605000000    -1.426000000     4.938000000
C    -3.967000000    -2.592000000     4.343000000
O    -3.607000000    -2.596000000     5.611000000
C    -2.278000000    -2.729000000     5.968000000
C    -1.333000000    -1.775000000     5.743000000
H    -1.685000000    -0.802000000     5.408000000
C    -1.806000000    -3.971000000     6.427000000
H    -2.459000000    -4.825000000     6.589000000
C    -0.427000000    -4.162000000     6.550000000
H    -0.094000000    -5.191000000     6.659000000
C     0.519000000    -3.156000000     6.435000000
H     1.585000000    -3.353000000     6.511000000
C     0.002000000    -1.918000000     6.066000000
O     0.888000000    -0.794000000     6.006000000
C     1.903000000    -0.686000000     5.051000000
C     2.672000000     0.506000000     5.110000000
H     2.596000000     1.314000000     5.833000000
C     3.670000000     0.651000000     4.155000000
O     4.464000000     1.749000000     4.319000000
C     5.380000000     2.251000000     3.407000000
C     6.729000000     1.891000000     3.468000000
H     7.060000000     1.131000000     4.171000000
C     7.703000000     2.510000000     2.719000000
H     8.721000000     2.203000000     2.943000000
C     7.266000000     3.560000000     1.778000000
H     7.920000000     4.144000000     1.136000000
C     5.928000000     3.856000000     1.700000000
C     4.992000000     3.247000000     2.512000000
H     3.942000000     3.523000000     2.468000000
C     0.351000000     2.093000000     0.260000000
H     0.551000000     2.981000000    -0.333000000
C     0.183000000     0.938000000    -0.445000000
H     0.280000000     0.853000000    -1.524000000
C     0.150000000    -0.280000000     0.199000000
H     0.252000000    -1.219000000    -0.320000000
C     0.015000000    -0.352000000     1.570000000
H    -0.099000000    -1.353000000     1.980000000
C     0.078000000     0.748000000     2.379000000
H    -0.016000000     0.732000000     3.461000000
C     0.330000000     1.981000000     1.700000000
C     0.624000000     3.215000000     2.474000000
O     0.390000000     3.299000000     3.660000000
O     1.008000000     4.231000000     1.959000000
O    -0.200000000     9.231000000     4.771000000
H     0.450000000     9.933000000     4.767000000
H     0.266000000     8.474000000     5.124000000
O     2.344000000     4.422000000     4.963000000
H     1.729000000     4.211000000     4.261000000
H     2.893000000     3.642000000     5.042000000
O     4.340000000     2.070000000     7.823000000
H     3.397000000     2.231000000     7.805000000
H     4.548000000     1.968000000     8.752000000
O    -2.952000000     2.088000000     1.677000000
H    -2.569000000     1.978000000     0.807000000
H    -2.709000000     2.976000000     1.936000000
O     1.146000000     6.871000000     6.324000000
H     1.148000000     5.951000000     6.059000000
H     2.072000000     7.110000000     6.367000000
O     3.668000000     8.832000000     2.273000000
H     3.497000000     7.897000000     2.384000000
H     3.985000000     9.121000000     3.128000000
O    -1.860000000     4.899000000     7.264000000
H    -2.005000000     5.814000000     7.507000000
H    -1.722000000     4.449000000     8.097000000
O    -2.225000000     4.549000000     2.480000000
H    -1.929000000     5.356000000     2.058000000
H    -1.843000000     4.584000000     3.357000000
O    -1.146000000     2.082000000     5.493000000
H    -1.717000000     1.632000000     4.871000000
H    -0.449000000     2.455000000     4.952000000
O    -4.254000000     3.553000000     5.527000000
H    -3.528000000     4.073000000     5.872000000
H    -3.838000000     2.768000000     5.171000000
O     2.591000000     6.386000000     2.645000000
H     2.365000000     6.292000000     3.571000000
H     2.225000000     5.606000000     2.229000000
O    -0.603000000     1.922000000     8.117000000
H    -1.305000000     1.272000000     8.154000000
H    -0.585000000     2.202000000     7.202000000
O    -3.265000000     0.910000000     3.997000000
H    -3.609000000     0.018000000     4.031000000
H    -3.131000000     1.079000000     3.064000000
O     5.449000000     4.074000000     6.611000000
H     5.262000000     3.330000000     7.184000000
H     4.610000000     4.272000000     6.194000000
O    -0.988000000     5.279000000     4.772000000
H    -0.450000000     4.517000000     4.559000000
H    -1.125000000     5.219000000     5.717000000
O    -2.554000000     8.019000000     3.548000000
H    -2.106000000     7.306000000     3.093000000
H    -1.940000000     8.289000000     4.232000000
O    -0.466000000     6.708000000     1.971000000
H     0.338000000     7.209000000     2.114000000
H    -0.172000000     5.800000000     1.896000000
O     1.894000000     3.072000000     7.651000000
H     1.620000000     3.492000000     6.836000000
H     1.077000000     2.782000000     8.057000000
O    -5.158000000     4.641000000     3.170000000
H    -5.061000000     4.035000000     3.904000000
H    -4.267000000     4.771000000     2.847000000
