215
-1449.76989
C    -4.302000000     1.947000000    -1.603000000
H    -4.891000000     1.034000000    -1.627000000
C    -3.037000000     2.022000000    -2.292000000
C    -2.239000000     3.145000000    -2.127000000
H    -1.372000000     3.197000000    -2.779000000
C    -2.616000000     0.908000000    -3.227000000
O    -3.543000000    -0.136000000    -3.427000000
H    -1.816000000     0.492000000    -2.598000000
O    -1.915000000     1.276000000    -4.404000000
C    -0.693000000     0.655000000    -4.526000000
C     0.446000000     1.389000000    -4.278000000
H     0.311000000     2.409000000    -3.929000000
C     1.713000000     0.846000000    -4.253000000
O     2.749000000     1.712000000    -3.878000000
C     1.842000000    -0.548000000    -4.548000000
C     3.253000000    -1.093000000    -4.528000000
H     3.194000000    -1.992000000    -5.144000000
C     3.672000000    -1.469000000    -3.114000000
C     3.364000000    -2.716000000    -2.683000000
H     2.893000000    -3.467000000    -3.312000000
H     3.941000000    -0.356000000    -4.949000000
C     0.718000000    -1.351000000    -4.764000000
H     0.811000000    -2.397000000    -5.045000000
C    -0.529000000    -0.741000000    -4.811000000
C    -1.720000000    -1.538000000    -5.067000000
H    -1.487000000    -2.339000000    -5.772000000
H    -2.428000000    -0.959000000    -5.665000000
C    -2.275000000    -2.178000000    -3.732000000
C    -1.906000000    -3.458000000    -3.298000000
H    -1.052000000    -3.931000000    -3.776000000
C    -3.172000000    -1.400000000    -3.018000000
C    -3.654000000    -1.920000000    -1.820000000
H    -4.478000000    -1.395000000    -1.346000000
C    -3.254000000    -3.153000000    -1.328000000
O    -3.672000000    -3.614000000    -0.078000000
C    -2.800000000    -3.215000000     1.025000000
C    -3.582000000    -2.650000000     2.213000000
C    -2.999000000    -2.589000000     3.477000000
H    -2.065000000    -3.103000000     3.689000000
C    -4.721000000    -1.891000000     1.989000000
H    -5.123000000    -1.763000000     0.987000000
O    -2.125000000    -4.410000000     1.303000000
H    -2.098000000    -2.433000000     0.701000000
C    -2.373000000    -3.928000000    -2.050000000
C    -1.768000000    -5.220000000    -1.514000000
H    -1.438000000    -5.880000000    -2.319000000
H    -2.541000000    -5.746000000    -0.951000000
C    -0.596000000    -4.852000000    -0.597000000
C     0.740000000    -4.684000000    -1.130000000
H     0.996000000    -4.938000000    -2.156000000
C    -0.884000000    -4.561000000     0.800000000
C     0.171000000    -4.145000000     1.631000000
H    -0.079000000    -3.746000000     2.610000000
C     1.458000000    -4.214000000     1.177000000
O     2.392000000    -3.654000000     2.022000000
C     2.789000000    -2.279000000     1.804000000
C     2.963000000    -1.508000000     3.091000000
C     2.189000000    -1.978000000     4.158000000
H     1.598000000    -2.890000000     4.123000000
C     3.717000000    -0.329000000     3.084000000
H     4.280000000     0.037000000     2.229000000
O     4.057000000    -2.206000000     0.964000000
H     2.002000000    -1.726000000     1.271000000
C     1.727000000    -4.382000000    -0.212000000
C     3.170000000    -4.357000000    -0.775000000
H     3.163000000    -5.025000000    -1.639000000
H     3.870000000    -4.778000000    -0.050000000
C     3.636000000    -3.019000000    -1.327000000
C     4.002000000    -1.976000000    -0.395000000
C     4.365000000    -0.738000000    -0.841000000
H     4.610000000     0.050000000    -0.132000000
C     4.189000000    -0.439000000    -2.262000000
O     4.275000000     0.843000000    -2.563000000
C     3.161000000     1.665000000    -2.490000000
H     2.463000000     1.248000000    -1.750000000
C     3.607000000     2.992000000    -2.001000000
C     3.057000000     4.141000000    -2.528000000
H     2.285000000     4.082000000    -3.291000000
C     4.506000000     3.055000000    -0.932000000
H     4.941000000     2.139000000    -0.541000000
C     4.791000000     4.288000000    -0.316000000
O     5.815000000     4.538000000     0.657000000
C     4.154000000     5.429000000    -0.902000000
H     4.259000000     6.391000000    -0.407000000
C     3.264000000     5.374000000    -1.977000000
O     2.629000000     6.477000000    -2.524000000
C     1.229000000     6.551000000    -2.750000000
C     0.300000000     5.924000000    -1.828000000
H     0.745000000     5.390000000    -0.992000000
C     0.798000000     7.090000000    -3.887000000
H     1.409000000     7.529000000    -4.671000000
C    -0.601000000     7.145000000    -4.102000000
H    -1.067000000     7.722000000    -4.897000000
C    -1.467000000     6.534000000    -3.185000000
H    -2.511000000     6.684000000    -3.447000000
C    -1.042000000     5.856000000    -2.047000000
O    -1.956000000     5.291000000    -1.139000000
C    -2.695000000     4.144000000    -1.323000000
C    -3.823000000     4.086000000    -0.607000000
H    -4.080000000     4.836000000     0.138000000
C    -4.664000000     3.022000000    -0.793000000
O    -5.803000000     2.976000000    -0.094000000
C    -6.525000000     1.900000000     0.274000000
C    -6.212000000     1.136000000     1.359000000
H    -5.403000000     1.365000000     2.048000000
C    -7.599000000     1.543000000    -0.526000000
H    -7.816000000     2.195000000    -1.368000000
C    -8.370000000     0.457000000    -0.253000000
H    -9.173000000     0.117000000    -0.902000000
C    -8.040000000    -0.288000000     0.849000000
H    -8.546000000    -1.212000000     1.114000000
C    -6.974000000     0.014000000     1.663000000
O    -6.627000000    -0.689000000     2.822000000
C    -5.422000000    -1.356000000     3.059000000
C    -4.866000000    -1.274000000     4.317000000
H    -5.390000000    -0.656000000     5.041000000
C    -3.677000000    -1.994000000     4.543000000
O    -3.064000000    -1.865000000     5.726000000
C    -1.920000000    -2.464000000     6.183000000
C    -0.824000000    -1.634000000     6.079000000
H    -0.859000000    -0.570000000     5.857000000
C    -1.869000000    -3.728000000     6.654000000
H    -2.807000000    -4.268000000     6.757000000
C    -0.653000000    -4.250000000     7.036000000
H    -0.528000000    -5.256000000     7.429000000
C     0.533000000    -3.453000000     6.870000000
H     1.476000000    -3.853000000     7.235000000
C     0.410000000    -2.165000000     6.419000000
O     1.542000000    -1.376000000     6.458000000
C     2.258000000    -1.133000000     5.280000000
C     2.989000000     0.026000000     5.290000000
H     2.971000000     0.636000000     6.189000000
C     3.658000000     0.499000000     4.190000000
O     4.346000000     1.753000000     4.285000000
C     5.331000000     2.204000000     3.391000000
C     6.599000000     1.566000000     3.513000000
H     6.751000000     0.706000000     4.160000000
C     7.612000000     1.995000000     2.694000000
H     8.558000000     1.469000000     2.790000000
C     7.302000000     3.013000000     1.710000000
H     8.110000000     3.386000000     1.084000000
C     5.988000000     3.597000000     1.574000000
C     5.011000000     3.145000000     2.472000000
H     4.019000000     3.587000000     2.522000000
C     0.426000000     2.607000000     0.615000000
H     0.615000000     3.656000000     0.399000000
C     0.112000000     1.708000000    -0.347000000
H    -0.057000000     2.000000000    -1.380000000
C    -0.126000000     0.350000000     0.013000000
H    -0.566000000    -0.308000000    -0.667000000
C    -0.025000000    -0.068000000     1.307000000
H    -0.321000000    -1.079000000     1.576000000
C     0.380000000     0.814000000     2.296000000
H     0.291000000     0.582000000     3.355000000
C     0.573000000     2.148000000     1.962000000
C     0.891000000     3.128000000     3.065000000
O     0.687000000     2.768000000     4.225000000
O     1.117000000     4.318000000     2.833000000
O    -0.927000000     8.955000000     4.182000000
H    -0.146000000     9.477000000     3.997000000
H    -0.604000000     8.056000000     4.243000000
O     2.350000000     4.022000000     5.952000000
H     1.957000000     4.858000000     6.204000000
H     1.670000000     3.583000000     5.441000000
O    -2.646000000     0.932000000     3.282000000
H    -1.865000000     0.466000000     2.983000000
H    -2.456000000     1.854000000     3.107000000
O     1.309000000     6.962000000     8.454000000
H     1.358000000     7.564000000     7.711000000
H     2.150000000     7.064000000     8.899000000
O     2.027000000     7.995000000     5.893000000
H     1.581000000     7.540000000     5.178000000
H     2.932000000     7.687000000     5.845000000
O    -2.322000000     3.862000000     2.389000000
H    -2.633000000     4.757000000     2.528000000
H    -1.417000000     3.965000000     2.094000000
O    -0.597000000     2.217000000     6.267000000
H    -1.517000000     2.103000000     6.028000000
H    -0.148000000     2.350000000     5.432000000
O     4.960000000     7.506000000     4.841000000
H     5.564000000     6.905000000     5.278000000
H     4.310000000     6.936000000     4.430000000
O    -2.539000000     4.928000000     5.807000000
H    -2.322000000     4.121000000     6.272000000
H    -3.495000000     4.968000000     5.830000000
O     2.711000000     5.990000000     4.217000000
H     2.803000000     5.265000000     4.835000000
H     2.612000000     5.565000000     3.364000000
O     0.536000000     1.538000000     8.701000000
H     0.258000000     2.311000000     9.193000000
H     0.116000000     1.634000000     7.846000000
O    -3.366000000     0.981000000     6.019000000
H    -3.355000000     0.162000000     6.515000000
H    -3.182000000     0.717000000     5.117000000
O     5.304000000     3.244000000     6.943000000
H     4.825000000     2.872000000     7.683000000
H     4.673000000     3.244000000     6.223000000
O    -0.645000000     6.209000000     3.674000000
H     0.070000000     5.604000000     3.481000000
H    -1.085000000     5.827000000     4.434000000
O    -1.725000000     7.404000000     1.212000000
H    -1.171000000     7.129000000     1.942000000
H    -1.446000000     6.856000000     0.479000000
O     1.291000000     6.945000000     1.257000000
H     1.799000000     7.492000000     1.856000000
H     1.279000000     6.082000000     1.671000000
O     3.229000000     2.295000000     8.528000000
H     2.348000000     1.938000000     8.409000000
H     3.203000000     3.146000000     8.091000000
O    -3.783000000     6.099000000     2.955000000
H    -3.557000000     7.029000000     2.985000000
H    -3.778000000     5.822000000     3.872000000
O     3.321000000     9.123000000     1.360000000
H     3.148000000    10.065000000     1.344000000
H     3.998000000     8.993000000     0.697000000
