215
-1422.44590
C    -4.336000000     1.852000000    -1.655000000
H    -4.521000000     0.830000000    -1.334000000
C    -3.388000000     2.055000000    -2.577000000
C    -2.957000000     3.423000000    -2.823000000
H    -2.043000000     3.624000000    -3.377000000
C    -2.695000000     0.885000000    -3.173000000
O    -3.585000000    -0.250000000    -3.217000000
H    -1.884000000     0.670000000    -2.462000000
O    -2.130000000     1.273000000    -4.464000000
C    -0.879000000     0.825000000    -4.679000000
C     0.205000000     1.719000000    -4.468000000
H     0.111000000     2.762000000    -4.176000000
C     1.496000000     1.198000000    -4.413000000
O     2.497000000     2.097000000    -3.941000000
C     1.732000000    -0.163000000    -4.586000000
C     3.125000000    -0.710000000    -4.368000000
H     3.212000000    -1.583000000    -5.018000000
C     3.637000000    -1.043000000    -2.949000000
C     3.499000000    -2.414000000    -2.558000000
H     3.119000000    -3.162000000    -3.249000000
H     3.722000000     0.129000000    -4.732000000
C     0.713000000    -1.034000000    -4.737000000
H     0.959000000    -2.093000000    -4.761000000
C    -0.598000000    -0.584000000    -4.867000000
C    -1.796000000    -1.588000000    -5.080000000
H    -1.580000000    -2.331000000    -5.850000000
H    -2.590000000    -1.119000000    -5.665000000
C    -2.367000000    -2.334000000    -3.875000000
C    -1.912000000    -3.618000000    -3.377000000
H    -1.365000000    -4.207000000    -4.108000000
C    -3.206000000    -1.573000000    -2.963000000
C    -3.647000000    -2.131000000    -1.746000000
H    -4.154000000    -1.486000000    -1.033000000
C    -3.306000000    -3.410000000    -1.345000000
O    -3.605000000    -3.865000000    -0.097000000
C    -2.722000000    -3.371000000     0.941000000
C    -3.257000000    -2.668000000     2.201000000
C    -2.550000000    -2.496000000     3.333000000
H    -1.597000000    -3.008000000     3.440000000
C    -4.495000000    -2.021000000     2.093000000
H    -5.211000000    -2.243000000     1.306000000
O    -1.846000000    -4.447000000     1.344000000
H    -2.141000000    -2.572000000     0.457000000
C    -2.293000000    -4.076000000    -2.067000000
C    -1.532000000    -5.253000000    -1.533000000
H    -1.120000000    -5.820000000    -2.370000000
H    -2.120000000    -5.931000000    -0.910000000
C    -0.408000000    -4.817000000    -0.579000000
C     0.946000000    -4.816000000    -1.120000000
H     1.166000000    -5.083000000    -2.151000000
C    -0.649000000    -4.399000000     0.731000000
C     0.386000000    -3.915000000     1.474000000
H     0.241000000    -3.587000000     2.500000000
C     1.693000000    -3.851000000     0.937000000
O     2.645000000    -3.463000000     1.920000000
C     3.041000000    -2.057000000     1.762000000
C     3.195000000    -1.428000000     3.067000000
C     2.560000000    -1.975000000     4.219000000
H     2.048000000    -2.933000000     4.249000000
C     3.835000000    -0.191000000     3.141000000
H     4.197000000     0.226000000     2.205000000
O     4.330000000    -2.085000000     1.047000000
H     2.273000000    -1.409000000     1.315000000
C     2.012000000    -4.328000000    -0.322000000
C     3.408000000    -4.208000000    -0.912000000
H     3.350000000    -4.788000000    -1.835000000
H     4.157000000    -4.743000000    -0.323000000
C     3.837000000    -2.794000000    -1.274000000
C     4.265000000    -1.858000000    -0.307000000
C     4.381000000    -0.560000000    -0.777000000
H     4.708000000     0.280000000    -0.169000000
C     4.064000000    -0.145000000    -2.052000000
O     4.100000000     1.190000000    -2.453000000
C     2.987000000     1.926000000    -2.603000000
H     2.225000000     1.280000000    -2.143000000
C     3.179000000     3.214000000    -1.786000000
C     2.273000000     4.286000000    -2.054000000
H     1.600000000     4.309000000    -2.908000000
C     4.238000000     3.371000000    -0.820000000
H     4.981000000     2.597000000    -0.648000000
C     4.299000000     4.469000000    -0.066000000
O     5.332000000     4.575000000     0.838000000
C     3.355000000     5.514000000    -0.268000000
H     3.277000000     6.447000000     0.286000000
C     2.411000000     5.418000000    -1.257000000
O     1.578000000     6.532000000    -1.460000000
C     0.489000000     6.524000000    -2.261000000
C    -0.754000000     6.123000000    -1.755000000
H    -0.933000000     6.057000000    -0.685000000
C     0.622000000     6.780000000    -3.632000000
H     1.614000000     6.946000000    -4.043000000
C    -0.491000000     6.641000000    -4.496000000
H    -0.210000000     6.628000000    -5.546000000
C    -1.722000000     6.194000000    -3.974000000
H    -2.541000000     6.030000000    -4.671000000
C    -1.860000000     6.111000000    -2.591000000
O    -3.087000000     5.724000000    -2.083000000
C    -3.627000000     4.460000000    -2.166000000
C    -4.616000000     4.199000000    -1.257000000
H    -5.101000000     4.957000000    -0.648000000
C    -5.009000000     2.880000000    -1.066000000
O    -5.912000000     2.715000000    -0.072000000
C    -6.611000000     1.558000000     0.280000000
C    -6.121000000     0.835000000     1.381000000
H    -5.157000000     1.131000000     1.788000000
C    -7.763000000     1.071000000    -0.318000000
H    -8.352000000     1.749000000    -0.930000000
C    -8.410000000    -0.118000000     0.116000000
H    -9.325000000    -0.566000000    -0.263000000
C    -7.948000000    -0.724000000     1.241000000
H    -8.496000000    -1.559000000     1.669000000
C    -6.776000000    -0.238000000     1.930000000
O    -6.279000000    -0.872000000     3.064000000
C    -4.950000000    -1.284000000     3.119000000
C    -4.278000000    -1.159000000     4.311000000
H    -4.646000000    -0.511000000     5.103000000
C    -3.005000000    -1.797000000     4.402000000
O    -2.373000000    -1.647000000     5.622000000
C    -1.313000000    -2.470000000     5.940000000
C    -0.110000000    -1.845000000     6.078000000
H     0.023000000    -0.821000000     5.738000000
C    -1.407000000    -3.811000000     6.421000000
H    -2.348000000    -4.338000000     6.286000000
C    -0.313000000    -4.468000000     6.945000000
H    -0.435000000    -5.458000000     7.376000000
C     0.874000000    -3.763000000     7.152000000
H     1.698000000    -4.352000000     7.547000000
C     0.980000000    -2.496000000     6.676000000
O     2.241000000    -1.951000000     6.573000000
C     2.769000000    -1.340000000     5.433000000
C     3.390000000    -0.057000000     5.586000000
H     3.449000000     0.469000000     6.536000000
C     3.967000000     0.496000000     4.407000000
O     4.663000000     1.682000000     4.569000000
C     5.527000000     2.144000000     3.604000000
C     6.732000000     1.547000000     3.415000000
H     7.022000000     0.734000000     4.076000000
C     7.522000000     2.031000000     2.376000000
H     8.511000000     1.593000000     2.267000000
C     7.188000000     3.079000000     1.530000000
H     7.889000000     3.370000000     0.751000000
C     5.841000000     3.567000000     1.673000000
C     5.059000000     3.099000000     2.703000000
H     4.117000000     3.614000000     2.874000000
C     0.466000000     2.716000000     1.178000000
H     0.581000000     3.783000000     1.352000000
C     0.366000000     2.141000000    -0.144000000
H     0.382000000     2.812000000    -0.999000000
C     0.307000000     0.768000000    -0.268000000
H     0.248000000     0.228000000    -1.218000000
C     0.264000000     0.035000000     0.914000000
H     0.129000000    -1.026000000     0.722000000
C     0.420000000     0.589000000     2.155000000
H     0.464000000    -0.001000000     3.067000000
C     0.431000000     1.995000000     2.317000000
C     0.483000000     2.699000000     3.702000000
O     0.115000000     2.128000000     4.738000000
O     0.640000000     3.884000000     3.733000000
O    -1.249000000     5.091000000     5.592000000
H    -0.723000000     4.627000000     4.941000000
H    -0.954000000     6.000000000     5.535000000
O    -2.172000000     1.051000000     5.956000000
H    -1.349000000     1.491000000     5.741000000
H    -2.046000000     0.150000000     5.659000000
O    -0.488000000     4.610000000     8.210000000
H    -1.292000000     5.010000000     8.542000000
H    -0.694000000     4.373000000     7.306000000
O     0.829000000     7.757000000     5.425000000
H     0.802000000     7.080000000     4.749000000
H     1.018000000     7.281000000     6.234000000
O     5.728000000     3.058000000     6.779000000
H     5.657000000     2.700000000     5.894000000
H     6.608000000     3.433000000     6.816000000
O    -2.694000000     2.201000000     3.475000000
H    -2.295000000     2.080000000     4.336000000
H    -2.211000000     1.608000000     2.900000000
O     0.649000000     1.448000000     7.336000000
H     1.301000000     2.079000000     7.642000000
H     0.666000000     1.530000000     6.383000000
O     4.669000000     5.898000000     6.691000000
H     4.016000000     5.372000000     6.230000000
H     5.332000000     5.267000000     6.970000000
O    -3.755000000     5.545000000     4.685000000
H    -3.820000000     5.222000000     3.786000000
H    -2.843000000     5.386000000     4.931000000
O     2.332000000     4.477000000     5.773000000
H     2.333000000     3.798000000     6.448000000
H     1.840000000     4.093000000     5.047000000
O    -1.402000000     2.151000000     9.424000000
H    -1.006000000     2.914000000     9.003000000
H    -0.787000000     1.437000000     9.256000000
O    -3.635000000     2.020000000     7.857000000
H    -2.893000000     2.116000000     8.455000000
H    -3.265000000     1.599000000     7.082000000
O     1.535000000     6.336000000     7.713000000
H     2.010000000     5.833000000     7.052000000
H     0.922000000     5.710000000     8.097000000
O     2.838000000     2.837000000     8.122000000
H     3.795000000     2.841000000     8.161000000
H     2.567000000     3.413000000     8.837000000
O    -1.121000000     7.132000000     2.141000000
H    -1.804000000     7.378000000     2.764000000
H    -1.383000000     7.550000000     1.321000000
O     4.169000000     7.714000000     2.789000000
H     3.367000000     7.283000000     2.493000000
H     3.955000000     8.044000000     3.661000000
O     1.222000000     6.337000000     3.003000000
H     0.968000000     5.471000000     3.322000000
H     0.435000000     6.676000000     2.577000000
O    -0.019000000    -0.406000000     9.407000000
H     0.554000000    -0.301000000     8.647000000
H    -0.366000000    -1.294000000     9.324000000
O    -3.921000000     4.305000000     2.003000000
H    -3.461000000     3.570000000     2.407000000
H    -3.286000000     4.677000000     1.390000000
