215
-1441.08696
C    -4.180000000     2.250000000    -2.086000000
H    -4.734000000     1.329000000    -2.250000000
C    -2.919000000     2.491000000    -2.723000000
C    -2.314000000     3.780000000    -2.554000000
H    -1.365000000     3.934000000    -3.061000000
C    -2.185000000     1.334000000    -3.379000000
O    -3.071000000     0.292000000    -3.796000000
H    -1.502000000     0.934000000    -2.615000000
O    -1.323000000     1.812000000    -4.375000000
C    -0.038000000     1.250000000    -4.600000000
C     1.060000000     2.072000000    -4.232000000
H     0.946000000     3.147000000    -4.121000000
C     2.282000000     1.493000000    -4.017000000
O     3.293000000     2.253000000    -3.464000000
C     2.448000000     0.149000000    -4.198000000
C     3.789000000    -0.455000000    -3.994000000
H     4.034000000    -1.270000000    -4.678000000
C     4.036000000    -1.091000000    -2.622000000
C     3.674000000    -2.421000000    -2.372000000
H     3.456000000    -3.038000000    -3.240000000
H     4.585000000     0.236000000    -4.281000000
C     1.421000000    -0.667000000    -4.695000000
H     1.516000000    -1.706000000    -5.001000000
C     0.139000000    -0.074000000    -4.881000000
C    -0.966000000    -1.035000000    -5.406000000
H    -0.448000000    -1.787000000    -6.005000000
H    -1.560000000    -0.420000000    -6.085000000
C    -1.724000000    -1.713000000    -4.238000000
C    -1.439000000    -2.983000000    -3.870000000
H    -0.702000000    -3.607000000    -4.369000000
C    -2.751000000    -1.024000000    -3.631000000
C    -3.361000000    -1.610000000    -2.538000000
H    -4.063000000    -1.018000000    -1.957000000
C    -3.047000000    -2.876000000    -2.065000000
O    -3.538000000    -3.142000000    -0.791000000
C    -2.681000000    -3.028000000     0.375000000
C    -3.441000000    -2.365000000     1.547000000
C    -2.873000000    -2.322000000     2.818000000
H    -1.866000000    -2.710000000     2.943000000
C    -4.723000000    -1.878000000     1.472000000
H    -5.198000000    -1.757000000     0.501000000
O    -2.270000000    -4.428000000     0.686000000
H    -1.811000000    -2.382000000     0.184000000
C    -2.015000000    -3.597000000    -2.689000000
C    -1.608000000    -4.975000000    -2.167000000
H    -1.199000000    -5.733000000    -2.837000000
H    -2.453000000    -5.471000000    -1.685000000
C    -0.623000000    -4.807000000    -1.040000000
C     0.749000000    -4.773000000    -1.412000000
H     0.940000000    -4.911000000    -2.473000000
C    -0.962000000    -4.621000000     0.305000000
C     0.046000000    -4.535000000     1.241000000
H    -0.266000000    -4.281000000     2.251000000
C     1.369000000    -4.322000000     0.876000000
O     2.239000000    -4.003000000     1.844000000
C     2.772000000    -2.666000000     1.883000000
C     2.853000000    -2.154000000     3.325000000
C     2.045000000    -2.788000000     4.256000000
H     1.320000000    -3.562000000     4.021000000
C     3.492000000    -0.936000000     3.627000000
H     3.965000000    -0.258000000     2.922000000
O     4.011000000    -2.543000000     1.260000000
H     1.993000000    -2.102000000     1.348000000
C     1.713000000    -4.456000000    -0.493000000
C     3.181000000    -4.410000000    -0.913000000
H     3.328000000    -5.012000000    -1.812000000
H     3.750000000    -4.829000000    -0.080000000
C     3.645000000    -2.964000000    -1.113000000
C     4.025000000    -2.133000000    -0.113000000
C     4.406000000    -0.817000000    -0.335000000
H     4.695000000    -0.235000000     0.537000000
C     4.450000000    -0.297000000    -1.563000000
O     4.617000000     1.060000000    -1.753000000
C     3.502000000     1.959000000    -2.025000000
H     2.589000000     1.435000000    -1.706000000
C     3.498000000     3.227000000    -1.130000000
C     2.971000000     4.429000000    -1.611000000
H     2.719000000     4.640000000    -2.647000000
C     3.931000000     3.207000000     0.180000000
H     4.343000000     2.270000000     0.545000000
C     3.821000000     4.320000000     1.052000000
O     4.304000000     4.295000000     2.391000000
C     3.205000000     5.459000000     0.584000000
H     2.983000000     6.346000000     1.172000000
C     2.897000000     5.514000000    -0.765000000
O     2.399000000     6.669000000    -1.247000000
C     1.244000000     6.678000000    -2.005000000
C     0.066000000     6.170000000    -1.481000000
H     0.094000000     5.767000000    -0.471000000
C     1.282000000     7.207000000    -3.316000000
H     2.215000000     7.610000000    -3.699000000
C     0.199000000     7.095000000    -4.157000000
H     0.339000000     7.337000000    -5.208000000
C    -1.021000000     6.735000000    -3.533000000
H    -1.892000000     6.721000000    -4.183000000
C    -1.106000000     6.290000000    -2.197000000
O    -2.305000000     5.993000000    -1.543000000
C    -2.886000000     4.771000000    -1.775000000
C    -4.137000000     4.490000000    -1.194000000
H    -4.633000000     5.312000000    -0.685000000
C    -4.752000000     3.285000000    -1.424000000
O    -5.989000000     3.066000000    -0.798000000
C    -6.573000000     1.877000000    -0.432000000
C    -6.124000000     1.227000000     0.717000000
H    -5.251000000     1.612000000     1.239000000
C    -7.653000000     1.432000000    -1.167000000
H    -7.963000000     2.033000000    -2.017000000
C    -8.354000000     0.280000000    -0.749000000
H    -9.157000000    -0.149000000    -1.343000000
C    -7.943000000    -0.333000000     0.452000000
H    -8.467000000    -1.235000000     0.758000000
C    -6.857000000     0.132000000     1.143000000
O    -6.483000000    -0.441000000     2.369000000
C    -5.358000000    -1.251000000     2.529000000
C    -4.763000000    -1.312000000     3.775000000
H    -5.296000000    -0.800000000     4.572000000
C    -3.514000000    -1.888000000     3.947000000
O    -2.876000000    -1.861000000     5.182000000
C    -2.024000000    -2.804000000     5.618000000
C    -0.745000000    -2.382000000     5.964000000
H    -0.441000000    -1.384000000     5.661000000
C    -2.462000000    -4.113000000     5.867000000
H    -3.491000000    -4.401000000     5.669000000
C    -1.549000000    -5.006000000     6.402000000
H    -1.765000000    -6.070000000     6.447000000
C    -0.267000000    -4.626000000     6.762000000
H     0.487000000    -5.340000000     7.082000000
C     0.205000000    -3.299000000     6.489000000
O     1.475000000    -2.942000000     6.625000000
C     2.160000000    -2.398000000     5.581000000
C     2.844000000    -1.251000000     5.936000000
H     2.885000000    -0.897000000     6.963000000
C     3.522000000    -0.544000000     4.952000000
O     4.058000000     0.649000000     5.405000000
C     4.795000000     1.408000000     4.494000000
C     6.075000000     0.986000000     4.194000000
H     6.583000000     0.220000000     4.776000000
C     6.746000000     1.750000000     3.235000000
H     7.751000000     1.503000000     2.902000000
C     6.124000000     2.853000000     2.651000000
H     6.588000000     3.344000000     1.799000000
C     4.876000000     3.241000000     3.024000000
C     4.171000000     2.456000000     3.895000000
H     3.113000000     2.672000000     4.021000000
C     0.434000000     2.392000000     1.091000000
H     0.352000000     3.456000000     1.299000000
C     0.354000000     1.905000000    -0.154000000
H     0.302000000     2.598000000    -0.990000000
C     0.384000000     0.599000000    -0.479000000
H     0.326000000     0.267000000    -1.552000000
C     0.376000000    -0.266000000     0.552000000
H     0.371000000    -1.342000000     0.397000000
C     0.346000000     0.120000000     1.878000000
H     0.187000000    -0.623000000     2.656000000
C     0.446000000     1.532000000     2.167000000
C     0.226000000     2.079000000     3.564000000
O     0.462000000     1.420000000     4.544000000
O    -0.274000000     3.212000000     3.618000000
O    -2.246000000     4.632000000     5.166000000
H    -1.470000000     4.174000000     4.843000000
H    -2.193000000     5.502000000     4.771000000
O    -1.248000000     1.931000000     6.627000000
H    -1.032000000     1.871000000     5.696000000
H    -0.430000000     1.717000000     7.076000000
O    -1.503000000     6.084000000     9.047000000
H    -1.832000000     5.579000000     8.303000000
H    -2.058000000     6.863000000     9.072000000
O    -0.452000000     6.802000000     5.539000000
H     0.001000000     6.766000000     4.697000000
H     0.018000000     6.177000000     6.091000000
O    -2.665000000     1.138000000     0.885000000
H    -2.187000000     0.847000000     1.662000000
H    -2.080000000     0.935000000     0.155000000
O     1.496000000     1.422000000     6.977000000
H     2.396000000     1.741000000     7.036000000
H     1.358000000     1.267000000     6.043000000
O    -4.918000000     3.140000000     5.196000000
H    -5.312000000     3.321000000     4.343000000
H    -4.140000000     3.696000000     5.223000000
O     0.570000000     4.209000000     6.144000000
H     0.817000000     3.530000000     6.772000000
H     0.514000000     3.750000000     5.306000000
O    -2.631000000     3.595000000     8.166000000
H    -2.131000000     2.791000000     8.026000000
H    -2.630000000     4.030000000     7.313000000
O     4.792000000     2.222000000     7.384000000
H     4.644000000     1.689000000     6.603000000
H     5.705000000     2.500000000     7.316000000
O    -1.955000000     7.251000000     3.212000000
H    -1.529000000     8.030000000     3.570000000
H    -2.160000000     7.485000000     2.307000000
O    -3.760000000     0.758000000     6.584000000
H    -3.318000000     0.000000000     6.201000000
H    -3.077000000     1.426000000     6.649000000
O     3.678000000     5.625000000     5.110000000
H     2.853000000     5.727000000     5.585000000
H     4.302000000     5.334000000     5.774000000
O    -5.349000000     5.589000000     2.021000000
H    -4.607000000     5.013000000     1.839000000
H    -5.258000000     6.303000000     1.391000000
O    -3.021000000     7.777000000     5.985000000
H    -2.161000000     7.404000000     5.792000000
H    -2.846000000     8.459000000     6.634000000
O     1.050000000     5.681000000     3.437000000
H     0.393000000     5.002000000     3.284000000
H     1.871000000     5.200000000     3.547000000
O     0.657000000     0.879000000    10.132000000
H     1.017000000     1.399000000     9.413000000
H     0.091000000     0.237000000     9.703000000
O    -3.317000000     3.778000000     1.860000000
H    -2.532000000     4.002000000     2.360000000
H    -3.173000000     2.875000000     1.580000000
O     0.935000000     8.016000000     1.977000000
H     1.038000000     7.135000000     2.336000000
H     0.408000000     8.479000000     2.628000000
