215
-1434.97495
C    -4.260000000     2.434000000    -1.732000000
H    -4.644000000     1.424000000    -1.617000000
C    -3.103000000     2.746000000    -2.464000000
C    -2.664000000     4.080000000    -2.561000000
H    -1.837000000     4.374000000    -3.203000000
C    -2.254000000     1.670000000    -3.138000000
O    -3.076000000     0.597000000    -3.637000000
H    -1.643000000     1.191000000    -2.359000000
O    -1.465000000     2.152000000    -4.257000000
C    -0.150000000     1.771000000    -4.331000000
C     0.874000000     2.533000000    -3.750000000
H     0.639000000     3.513000000    -3.343000000
C     2.165000000     2.050000000    -3.686000000
O     3.017000000     2.716000000    -2.836000000
C     2.356000000     0.755000000    -4.112000000
C     3.780000000     0.139000000    -3.905000000
H     4.126000000    -0.442000000    -4.762000000
C     3.958000000    -0.634000000    -2.624000000
C     3.793000000    -2.001000000    -2.709000000
H     3.602000000    -2.459000000    -3.677000000
H     4.565000000     0.897000000    -3.937000000
C     1.374000000    -0.081000000    -4.622000000
H     1.651000000    -1.029000000    -5.075000000
C     0.071000000     0.432000000    -4.673000000
C    -0.980000000    -0.475000000    -5.217000000
H    -0.502000000    -1.223000000    -5.854000000
H    -1.617000000     0.139000000    -5.857000000
C    -1.757000000    -1.290000000    -4.245000000
C    -1.302000000    -2.521000000    -3.949000000
H    -0.398000000    -2.856000000    -4.451000000
C    -2.733000000    -0.710000000    -3.469000000
C    -3.349000000    -1.422000000    -2.514000000
H    -4.109000000    -0.999000000    -1.862000000
C    -3.045000000    -2.768000000    -2.289000000
O    -3.515000000    -3.272000000    -1.078000000
C    -2.692000000    -3.067000000     0.108000000
C    -3.598000000    -2.781000000     1.279000000
C    -3.098000000    -3.098000000     2.529000000
H    -2.157000000    -3.629000000     2.646000000
C    -4.735000000    -1.981000000     1.270000000
H    -4.980000000    -1.541000000     0.306000000
O    -1.989000000    -4.308000000     0.274000000
H    -1.995000000    -2.240000000    -0.091000000
C    -1.906000000    -3.308000000    -2.961000000
C    -1.422000000    -4.744000000    -2.698000000
H    -0.922000000    -5.159000000    -3.575000000
H    -2.185000000    -5.439000000    -2.341000000
C    -0.376000000    -4.644000000    -1.608000000
C     1.003000000    -4.694000000    -2.049000000
H     1.198000000    -4.672000000    -3.118000000
C    -0.728000000    -4.482000000    -0.252000000
C     0.284000000    -4.456000000     0.695000000
H     0.067000000    -4.358000000     1.755000000
C     1.647000000    -4.423000000     0.266000000
O     2.581000000    -4.373000000     1.322000000
C     3.076000000    -3.091000000     1.608000000
C     3.159000000    -2.777000000     3.081000000
C     2.201000000    -3.297000000     3.964000000
H     1.366000000    -3.882000000     3.585000000
C     4.125000000    -1.889000000     3.490000000
H     4.773000000    -1.451000000     2.736000000
O     4.340000000    -2.839000000     0.837000000
H     2.293000000    -2.431000000     1.208000000
C     2.032000000    -4.501000000    -1.096000000
C     3.479000000    -4.242000000    -1.535000000
H     3.620000000    -4.600000000    -2.557000000
H     4.136000000    -4.851000000    -0.910000000
C     3.880000000    -2.791000000    -1.547000000
C     4.311000000    -2.157000000    -0.391000000
C     4.456000000    -0.760000000    -0.284000000
H     4.671000000    -0.336000000     0.694000000
C     4.275000000    -0.005000000    -1.449000000
O     4.378000000     1.391000000    -1.343000000
C     3.138000000     2.175000000    -1.496000000
H     2.257000000     1.540000000    -1.322000000
C     3.037000000     3.313000000    -0.454000000
C     2.326000000     4.478000000    -0.724000000
H     1.844000000     4.574000000    -1.694000000
C     3.601000000     3.091000000     0.802000000
H     4.132000000     2.167000000     1.017000000
C     3.318000000     3.915000000     1.854000000
O     3.752000000     3.697000000     3.167000000
C     2.667000000     5.096000000     1.559000000
H     2.426000000     5.833000000     2.321000000
C     2.122000000     5.397000000     0.297000000
O     1.323000000     6.490000000     0.124000000
C     0.525000000     6.771000000    -0.966000000
C    -0.804000000     6.446000000    -1.054000000
H    -1.286000000     5.901000000    -0.247000000
C     1.045000000     7.458000000    -2.046000000
H     2.106000000     7.691000000    -2.099000000
C     0.303000000     7.778000000    -3.128000000
H     0.875000000     8.274000000    -3.908000000
C    -1.010000000     7.551000000    -3.176000000
H    -1.536000000     7.936000000    -4.045000000
C    -1.566000000     6.788000000    -2.149000000
O    -2.918000000     6.389000000    -2.206000000
C    -3.312000000     5.096000000    -1.897000000
C    -4.411000000     4.802000000    -1.094000000
H    -4.953000000     5.633000000    -0.650000000
C    -4.879000000     3.424000000    -1.045000000
O    -6.066000000     3.259000000    -0.398000000
C    -6.728000000     2.130000000    -0.127000000
C    -6.247000000     1.355000000     0.918000000
H    -5.689000000     1.903000000     1.673000000
C    -7.656000000     1.654000000    -1.042000000
H    -7.728000000     2.257000000    -1.944000000
C    -8.178000000     0.368000000    -0.776000000
H    -8.881000000    -0.105000000    -1.458000000
C    -7.761000000    -0.407000000     0.297000000
H    -8.222000000    -1.381000000     0.442000000
C    -6.837000000     0.112000000     1.184000000
O    -6.364000000    -0.532000000     2.339000000
C    -5.298000000    -1.401000000     2.390000000
C    -4.758000000    -1.675000000     3.603000000
H    -5.111000000    -1.151000000     4.487000000
C    -3.688000000    -2.538000000     3.700000000
O    -3.084000000    -2.668000000     4.884000000
C    -2.042000000    -3.533000000     5.136000000
C    -0.799000000    -3.021000000     5.373000000
H    -0.576000000    -1.959000000     5.437000000
C    -2.252000000    -4.865000000     5.090000000
H    -3.213000000    -5.221000000     4.728000000
C    -1.313000000    -5.782000000     5.478000000
H    -1.388000000    -6.863000000     5.393000000
C    -0.067000000    -5.232000000     5.921000000
H     0.700000000    -5.923000000     6.262000000
C     0.212000000    -3.878000000     5.800000000
O     1.367000000    -3.323000000     6.230000000
C     2.300000000    -2.899000000     5.287000000
C     3.288000000    -1.976000000     5.744000000
H     3.304000000    -1.602000000     6.764000000
C     4.204000000    -1.436000000     4.778000000
O     5.187000000    -0.503000000     5.167000000
C     5.411000000     0.685000000     4.425000000
C     6.689000000     0.749000000     3.909000000
H     7.445000000    -0.010000000     4.092000000
C     6.956000000     1.885000000     3.095000000
H     7.980000000     1.986000000     2.745000000
C     5.985000000     2.860000000     2.862000000
H     6.238000000     3.693000000     2.211000000
C     4.683000000     2.746000000     3.473000000
C     4.379000000     1.595000000     4.156000000
H     3.382000000     1.367000000     4.525000000
C     0.090000000     1.683000000     1.491000000
H     0.241000000     2.631000000     0.980000000
C     0.256000000     0.558000000     0.710000000
H     0.461000000     0.687000000    -0.350000000
C     0.154000000    -0.730000000     1.250000000
H     0.311000000    -1.672000000     0.620000000
C    -0.146000000    -0.849000000     2.552000000
H    -0.136000000    -1.830000000     3.020000000
C    -0.251000000     0.305000000     3.390000000
H    -0.427000000     0.281000000     4.462000000
C    -0.123000000     1.574000000     2.897000000
C    -0.403000000     2.804000000     3.732000000
O    -0.811000000     2.716000000     4.889000000
O    -0.324000000     3.842000000     3.208000000
O    -2.203000000     6.643000000     7.384000000
H    -1.538000000     6.952000000     6.768000000
H    -2.527000000     7.439000000     7.805000000
O    -3.170000000     8.907000000     5.060000000
H    -2.494000000     9.564000000     4.895000000
H    -2.712000000     8.069000000     4.994000000
O    -5.471000000     3.047000000     5.683000000
H    -5.489000000     3.597000000     6.466000000
H    -4.547000000     3.006000000     5.439000000
O    -2.859000000     4.549000000     5.203000000
H    -2.105000000     3.992000000     5.009000000
H    -2.518000000     5.215000000     5.799000000
O    -0.857000000     7.315000000     4.995000000
H     0.047000000     7.388000000     5.301000000
H    -0.779000000     7.059000000     4.076000000
O    -2.943000000     1.017000000     1.147000000
H    -3.001000000     0.820000000     0.212000000
H    -2.108000000     0.639000000     1.421000000
O    -1.640000000     2.353000000     7.557000000
H    -1.592000000     2.598000000     6.633000000
H    -2.532000000     2.583000000     7.820000000
O    -1.319000000     1.611000000    10.176000000
H    -0.974000000     0.726000000    10.057000000
H    -1.503000000     1.918000000     9.289000000
O     1.498000000     5.313000000     4.560000000
H     0.812000000     5.260000000     5.225000000
H     1.105000000     4.924000000     3.778000000
O     1.768000000     7.999000000     5.927000000
H     2.406000000     8.052000000     5.215000000
H     2.293000000     7.822000000     6.707000000
O     0.635000000     4.195000000     9.962000000
H     0.510000000     3.470000000     9.350000000
H    -0.243000000     4.554000000    10.090000000
O    -0.505000000     9.461000000     1.361000000
H    -1.166000000     9.850000000     1.934000000
H    -0.662000000     8.519000000     1.421000000
O    -4.232000000     5.658000000     2.761000000
H    -4.101000000     5.294000000     3.637000000
H    -3.695000000     5.108000000     2.191000000
O     4.276000000     5.090000000     5.876000000
H     3.558000000     5.102000000     5.243000000
H     3.940000000     5.578000000     6.628000000
O    -0.641000000     6.423000000     2.272000000
H    -0.525000000     5.546000000     2.637000000
H    -0.088000000     6.432000000     1.490000000
O     3.020000000     2.170000000     7.207000000
H     2.177000000     1.736000000     7.339000000
H     2.880000000     2.741000000     6.451000000
O     0.716000000     1.112000000     7.951000000
H     0.040000000     1.742000000     7.702000000
H     0.250000000     0.280000000     8.031000000
O    -2.237000000     3.962000000     1.284000000
H    -1.447000000     4.056000000     1.816000000
H    -2.374000000     3.017000000     1.221000000
O    -4.114000000     7.916000000     1.183000000
H    -3.820000000     7.086000000     1.559000000
H    -5.043000000     7.781000000     1.000000000
