215
-1452.08509
C    -4.134000000     2.480000000    -2.220000000
H    -4.443000000     1.441000000    -2.141000000
C    -2.878000000     2.791000000    -2.686000000
C    -2.545000000     4.134000000    -2.542000000
H    -1.610000000     4.529000000    -2.933000000
C    -2.068000000     1.563000000    -3.242000000
O    -2.865000000     0.537000000    -3.784000000
H    -1.474000000     1.109000000    -2.435000000
O    -1.170000000     1.944000000    -4.271000000
C     0.151000000     1.568000000    -4.247000000
C     1.164000000     2.484000000    -3.787000000
H     0.929000000     3.488000000    -3.441000000
C     2.492000000     1.949000000    -3.580000000
O     3.296000000     2.692000000    -2.716000000
C     2.801000000     0.651000000    -4.103000000
C     4.180000000     0.033000000    -3.773000000
H     4.409000000    -0.754000000    -4.495000000
C     4.289000000    -0.685000000    -2.427000000
C     4.051000000    -2.092000000    -2.384000000
H     3.872000000    -2.672000000    -3.286000000
H     4.889000000     0.861000000    -3.836000000
C     1.797000000    -0.160000000    -4.640000000
H     2.158000000    -1.145000000    -4.925000000
C     0.518000000     0.319000000    -4.726000000
C    -0.502000000    -0.520000000    -5.360000000
H    -0.065000000    -1.129000000    -6.155000000
H    -1.323000000     0.048000000    -5.802000000
C    -1.300000000    -1.418000000    -4.364000000
C    -0.920000000    -2.741000000    -4.088000000
H    -0.055000000    -3.146000000    -4.606000000
C    -2.430000000    -0.828000000    -3.752000000
C    -3.115000000    -1.549000000    -2.813000000
H    -3.820000000    -0.984000000    -2.208000000
C    -2.677000000    -2.829000000    -2.489000000
O    -3.307000000    -3.367000000    -1.401000000
C    -2.581000000    -3.119000000    -0.179000000
C    -3.458000000    -2.726000000     1.002000000
C    -3.161000000    -2.964000000     2.327000000
H    -2.319000000    -3.625000000     2.515000000
C    -4.645000000    -2.009000000     0.736000000
H    -4.978000000    -1.969000000    -0.298000000
O    -1.904000000    -4.356000000     0.149000000
H    -1.911000000    -2.253000000    -0.288000000
C    -1.660000000    -3.484000000    -3.103000000
C    -1.223000000    -4.854000000    -2.581000000
H    -0.809000000    -5.342000000    -3.466000000
H    -2.074000000    -5.517000000    -2.413000000
C    -0.170000000    -4.729000000    -1.468000000
C     1.229000000    -4.666000000    -1.745000000
H     1.607000000    -4.777000000    -2.758000000
C    -0.569000000    -4.535000000    -0.119000000
C     0.362000000    -4.437000000     0.864000000
H     0.071000000    -4.526000000     1.908000000
C     1.708000000    -4.344000000     0.584000000
O     2.568000000    -4.185000000     1.633000000
C     2.974000000    -2.845000000     1.827000000
C     2.704000000    -2.438000000     3.267000000
C     1.846000000    -3.205000000     4.159000000
H     1.458000000    -4.137000000     3.756000000
C     3.323000000    -1.253000000     3.739000000
H     3.887000000    -0.637000000     3.042000000
O     4.268000000    -2.468000000     1.300000000
H     2.290000000    -2.150000000     1.318000000
C     2.144000000    -4.363000000    -0.713000000
C     3.597000000    -4.156000000    -1.004000000
H     3.793000000    -4.771000000    -1.885000000
H     4.205000000    -4.654000000    -0.245000000
C     4.011000000    -2.705000000    -1.109000000
C     4.375000000    -1.983000000     0.015000000
C     4.489000000    -0.584000000     0.026000000
H     4.624000000    -0.007000000     0.937000000
C     4.445000000     0.047000000    -1.206000000
O     4.638000000     1.385000000    -1.279000000
C     3.443000000     2.141000000    -1.350000000
H     2.497000000     1.604000000    -1.189000000
C     3.398000000     3.358000000    -0.397000000
C     2.538000000     4.439000000    -0.589000000
H     1.847000000     4.430000000    -1.428000000
C     4.225000000     3.301000000     0.736000000
H     4.913000000     2.481000000     0.929000000
C     4.180000000     4.318000000     1.612000000
O     4.842000000     4.272000000     2.825000000
C     3.325000000     5.444000000     1.516000000
H     3.351000000     6.226000000     2.271000000
C     2.458000000     5.500000000     0.401000000
O     1.401000000     6.444000000     0.436000000
C     0.583000000     6.754000000    -0.665000000
C    -0.795000000     6.454000000    -0.613000000
H    -1.120000000     5.922000000     0.277000000
C     1.086000000     7.481000000    -1.755000000
H     2.134000000     7.761000000    -1.824000000
C     0.248000000     7.847000000    -2.819000000
H     0.612000000     8.367000000    -3.702000000
C    -1.100000000     7.526000000    -2.731000000
H    -1.705000000     7.639000000    -3.627000000
C    -1.658000000     6.822000000    -1.663000000
O    -3.012000000     6.409000000    -1.816000000
C    -3.397000000     5.106000000    -1.990000000
C    -4.702000000     4.704000000    -1.624000000
H    -5.322000000     5.399000000    -1.063000000
C    -5.048000000     3.403000000    -1.654000000
O    -6.227000000     3.035000000    -1.094000000
C    -6.670000000     1.727000000    -1.045000000
C    -6.595000000     1.114000000     0.162000000
H    -6.243000000     1.519000000     1.107000000
C    -7.295000000     1.083000000    -2.172000000
H    -7.411000000     1.687000000    -3.068000000
C    -7.753000000    -0.216000000    -2.092000000
H    -8.311000000    -0.686000000    -2.898000000
C    -7.626000000    -0.953000000    -0.932000000
H    -7.938000000    -1.993000000    -0.867000000
C    -6.938000000    -0.270000000     0.155000000
O    -6.697000000    -0.945000000     1.396000000
C    -5.531000000    -1.538000000     1.674000000
C    -5.140000000    -1.670000000     2.973000000
H    -5.846000000    -1.515000000     3.785000000
C    -4.052000000    -2.473000000     3.283000000
O    -3.743000000    -2.679000000     4.650000000
C    -2.742000000    -3.481000000     5.088000000
C    -1.452000000    -3.001000000     5.405000000
H    -1.220000000    -1.966000000     5.166000000
C    -3.001000000    -4.829000000     5.363000000
H    -3.988000000    -5.272000000     5.251000000
C    -2.028000000    -5.677000000     5.891000000
H    -2.347000000    -6.660000000     6.228000000
C    -0.752000000    -5.185000000     6.074000000
H    -0.051000000    -5.785000000     6.648000000
C    -0.397000000    -3.870000000     5.856000000
O     0.752000000    -3.355000000     6.294000000
C     1.605000000    -2.726000000     5.429000000
C     2.270000000    -1.512000000     5.855000000
H     2.052000000    -1.095000000     6.835000000
C     3.133000000    -0.811000000     5.022000000
O     3.674000000     0.419000000     5.469000000
C     4.612000000     1.209000000     4.761000000
C     5.908000000     0.747000000     4.691000000
H     6.181000000    -0.227000000     5.089000000
C     6.880000000     1.520000000     4.100000000
H     7.854000000     1.059000000     3.959000000
C     6.494000000     2.694000000     3.444000000
H     7.210000000     3.355000000     2.962000000
C     5.204000000     3.157000000     3.543000000
C     4.233000000     2.450000000     4.211000000
H     3.191000000     2.760000000     4.235000000
C     0.145000000     2.030000000     0.897000000
H     0.262000000     3.110000000     0.875000000
C     0.083000000     1.230000000    -0.275000000
H     0.187000000     1.605000000    -1.289000000
C     0.074000000    -0.162000000    -0.085000000
H     0.178000000    -0.738000000    -1.024000000
C    -0.079000000    -0.712000000     1.210000000
H    -0.069000000    -1.789000000     1.357000000
C     0.068000000     0.100000000     2.347000000
H     0.128000000    -0.315000000     3.350000000
C     0.197000000     1.483000000     2.198000000
C     0.310000000     2.368000000     3.443000000
O     0.037000000     1.837000000     4.482000000
O     0.383000000     3.560000000     3.332000000
O    -1.314000000     6.363000000     6.097000000
H    -1.272000000     5.492000000     5.702000000
H    -2.180000000     6.401000000     6.502000000
O    -2.443000000     8.108000000     3.851000000
H    -2.116000000     7.396000000     3.302000000
H    -2.314000000     7.798000000     4.747000000
O    -2.942000000     4.581000000     4.047000000
H    -3.642000000     4.368000000     3.430000000
H    -2.303000000     5.067000000     3.526000000
O    -4.114000000    -0.026000000     7.467000000
H    -3.246000000     0.286000000     7.210000000
H    -4.046000000    -0.980000000     7.426000000
O    -1.426000000     3.429000000     5.826000000
H    -0.902000000     2.928000000     5.201000000
H    -2.049000000     3.911000000     5.283000000
O    -2.943000000     1.302000000     1.625000000
H    -3.481000000     0.520000000     1.504000000
H    -2.055000000     0.965000000     1.746000000
O    -1.424000000     0.231000000     6.225000000
H    -0.844000000     0.142000000     6.982000000
H    -1.117000000     1.022000000     5.780000000
O    -2.930000000     2.848000000     8.549000000
H    -2.358000000     3.164000000     7.850000000
H    -3.815000000     2.957000000     8.201000000
O     1.403000000     5.579000000     5.159000000
H     0.631000000     5.761000000     5.695000000
H     1.114000000     4.906000000     4.543000000
O     0.901000000     8.126000000     4.556000000
H     1.313000000     7.266000000     4.637000000
H     0.327000000     8.189000000     5.320000000
O     0.261000000    -0.532000000     8.514000000
H    -0.037000000    -1.441000000     8.483000000
H     1.056000000    -0.558000000     9.047000000
O     0.690000000     4.281000000     8.154000000
H     0.721000000     3.670000000     8.891000000
H     0.632000000     3.720000000     7.381000000
O    -4.784000000     6.124000000     1.450000000
H    -4.232000000     6.850000000     1.157000000
H    -4.283000000     5.339000000     1.229000000
O    -5.818000000     1.004000000     5.641000000
H    -5.183000000     0.936000000     6.354000000
H    -5.341000000     1.443000000     4.937000000
O     3.913000000     5.546000000     6.806000000
H     3.123000000     5.530000000     6.264000000
H     3.656000000     6.032000000     7.589000000
O    -0.741000000     5.803000000     2.901000000
H    -0.072000000     6.393000000     2.554000000
H    -0.326000000     4.940000000     2.894000000
O     3.771000000     3.000000000     7.950000000
H     2.962000000     2.631000000     7.596000000
H     3.713000000     3.936000000     7.754000000
O     1.457000000     1.726000000     6.939000000
H     0.981000000     1.896000000     6.126000000
H     1.102000000     0.894000000     7.254000000
O    -3.090000000     4.072000000     1.043000000
H    -2.157000000     3.914000000     0.898000000
H    -3.450000000     3.209000000     1.247000000
