215
-1453.22903
C    -4.794000000     1.731000000    -1.525000000
H    -5.018000000     0.696000000    -1.774000000
C    -3.733000000     2.299000000    -2.249000000
C    -3.230000000     3.529000000    -1.842000000
H    -2.260000000     3.905000000    -2.159000000
C    -2.804000000     1.443000000    -3.115000000
O    -3.602000000     0.431000000    -3.813000000
H    -2.161000000     0.839000000    -2.458000000
O    -1.977000000     2.192000000    -4.057000000
C    -0.660000000     1.925000000    -4.302000000
C     0.217000000     2.756000000    -3.629000000
H    -0.095000000     3.609000000    -3.031000000
C     1.554000000     2.549000000    -3.618000000
O     2.338000000     3.360000000    -2.852000000
C     2.033000000     1.390000000    -4.304000000
C     3.524000000     1.052000000    -4.289000000
H     3.732000000     0.306000000    -5.059000000
C     3.924000000     0.262000000    -3.047000000
C     3.889000000    -1.147000000    -2.982000000
H     3.737000000    -1.749000000    -3.874000000
H     4.176000000     1.891000000    -4.540000000
C     1.114000000     0.448000000    -4.866000000
H     1.477000000    -0.463000000    -5.334000000
C    -0.288000000     0.725000000    -4.899000000
C    -1.284000000    -0.261000000    -5.582000000
H    -0.916000000    -0.877000000    -6.406000000
H    -2.173000000     0.265000000    -5.936000000
C    -1.849000000    -1.137000000    -4.537000000
C    -1.285000000    -2.411000000    -4.322000000
H    -0.600000000    -2.914000000    -4.999000000
C    -2.914000000    -0.784000000    -3.744000000
C    -3.337000000    -1.569000000    -2.646000000
H    -4.110000000    -1.152000000    -2.005000000
C    -2.649000000    -2.739000000    -2.346000000
O    -3.006000000    -3.406000000    -1.152000000
C    -2.087000000    -3.583000000    -0.083000000
C    -2.843000000    -3.403000000     1.213000000
C    -2.335000000    -3.919000000     2.359000000
H    -1.388000000    -4.444000000     2.261000000
C    -3.951000000    -2.575000000     1.273000000
H    -4.267000000    -2.112000000     0.342000000
O    -1.354000000    -4.770000000    -0.173000000
H    -1.377000000    -2.763000000    -0.266000000
C    -1.682000000    -3.204000000    -3.262000000
C    -1.013000000    -4.567000000    -3.017000000
H    -0.473000000    -4.986000000    -3.869000000
H    -1.721000000    -5.329000000    -2.684000000
C     0.141000000    -4.396000000    -2.008000000
C     1.428000000    -4.027000000    -2.408000000
H     1.629000000    -4.026000000    -3.477000000
C    -0.094000000    -4.596000000    -0.625000000
C     0.928000000    -4.425000000     0.333000000
H     0.664000000    -4.485000000     1.386000000
C     2.128000000    -4.003000000    -0.119000000
O     3.065000000    -3.772000000     0.834000000
C     3.219000000    -2.348000000     1.146000000
C     3.175000000    -2.048000000     2.709000000
C     2.715000000    -2.958000000     3.668000000
H     2.345000000    -3.909000000     3.296000000
C     3.591000000    -0.803000000     3.179000000
H     3.886000000    -0.041000000     2.462000000
O     4.466000000    -1.822000000     0.488000000
H     2.318000000    -1.810000000     0.817000000
C     2.479000000    -3.764000000    -1.473000000
C     3.909000000    -3.383000000    -1.915000000
H     4.202000000    -3.813000000    -2.875000000
H     4.549000000    -3.919000000    -1.210000000
C     4.164000000    -1.919000000    -1.848000000
C     4.415000000    -1.188000000    -0.691000000
C     4.410000000     0.216000000    -0.628000000
H     4.464000000     0.692000000     0.348000000
C     4.153000000     0.909000000    -1.788000000
O     4.133000000     2.270000000    -1.662000000
C     2.852000000     2.918000000    -1.541000000
H     2.213000000     2.078000000    -1.230000000
C     2.856000000     4.058000000    -0.495000000
C     1.846000000     5.014000000    -0.516000000
H     1.101000000     5.029000000    -1.308000000
C     3.739000000     4.071000000     0.563000000
H     4.626000000     3.443000000     0.599000000
C     3.618000000     4.990000000     1.596000000
O     4.524000000     4.962000000     2.665000000
C     2.577000000     5.870000000     1.579000000
H     2.641000000     6.623000000     2.361000000
C     1.718000000     5.917000000     0.487000000
O     0.598000000     6.678000000     0.653000000
C    -0.425000000     6.766000000    -0.270000000
C    -1.574000000     6.041000000    -0.088000000
H    -1.678000000     5.413000000     0.793000000
C    -0.266000000     7.525000000    -1.447000000
H     0.701000000     8.007000000    -1.564000000
C    -1.332000000     7.805000000    -2.277000000
H    -1.199000000     8.566000000    -3.042000000
C    -2.581000000     7.168000000    -2.043000000
H    -3.396000000     7.333000000    -2.744000000
C    -2.642000000     6.331000000    -0.914000000
O    -3.752000000     5.622000000    -0.698000000
C    -4.012000000     4.314000000    -0.998000000
C    -5.170000000     3.809000000    -0.422000000
H    -5.692000000     4.414000000     0.315000000
C    -5.549000000     2.546000000    -0.684000000
O    -6.742000000     2.116000000    -0.131000000
C    -6.900000000     0.810000000     0.211000000
C    -6.314000000     0.179000000     1.326000000
H    -5.618000000     0.777000000     1.908000000
C    -7.751000000     0.040000000    -0.565000000
H    -8.226000000     0.482000000    -1.437000000
C    -7.939000000    -1.338000000    -0.367000000
H    -8.552000000    -1.966000000    -1.009000000
C    -7.305000000    -1.928000000     0.709000000
H    -7.398000000    -2.992000000     0.912000000
C    -6.513000000    -1.156000000     1.500000000
O    -5.892000000    -1.774000000     2.600000000
C    -4.748000000    -2.532000000     2.425000000
C    -4.151000000    -2.984000000     3.621000000
H    -4.727000000    -2.962000000     4.543000000
C    -2.953000000    -3.740000000     3.585000000
O    -2.463000000    -4.223000000     4.837000000
C    -1.189000000    -4.820000000     5.002000000
C    -0.214000000    -3.989000000     5.488000000
H    -0.372000000    -2.930000000     5.677000000
C    -0.893000000    -6.159000000     4.680000000
H    -1.687000000    -6.805000000     4.312000000
C     0.441000000    -6.639000000     4.938000000
H     0.655000000    -7.693000000     4.779000000
C     1.405000000    -5.759000000     5.450000000
H     2.458000000    -6.001000000     5.571000000
C     1.106000000    -4.400000000     5.528000000
O     2.058000000    -3.584000000     5.977000000
C     2.661000000    -2.701000000     5.063000000
C     3.098000000    -1.419000000     5.482000000
H     3.015000000    -1.140000000     6.529000000
C     3.590000000    -0.461000000     4.553000000
O     3.969000000     0.788000000     4.984000000
C     4.832000000     1.633000000     4.334000000
C     6.201000000     1.377000000     4.226000000
H     6.659000000     0.503000000     4.680000000
C     6.959000000     2.391000000     3.623000000
H     8.041000000     2.292000000     3.665000000
C     6.460000000     3.599000000     3.097000000
H     7.114000000     4.400000000     2.762000000
C     5.078000000     3.800000000     3.201000000
C     4.288000000     2.768000000     3.790000000
H     3.211000000     2.885000000     3.880000000
C    -0.388000000     1.981000000     0.626000000
H    -0.558000000     3.048000000     0.506000000
C    -0.124000000     1.254000000    -0.527000000
H    -0.006000000     1.776000000    -1.473000000
C     0.082000000    -0.119000000    -0.485000000
H     0.244000000    -0.680000000    -1.405000000
C    -0.010000000    -0.797000000     0.731000000
H     0.211000000    -1.861000000     0.763000000
C    -0.343000000    -0.110000000     1.895000000
H    -0.549000000    -0.634000000     2.825000000
C    -0.482000000     1.340000000     1.854000000
C    -0.737000000     2.089000000     3.164000000
O    -0.319000000     1.743000000     4.250000000
O    -1.232000000     3.189000000     3.119000000
O    -2.780000000     6.467000000     7.672000000
H    -3.530000000     6.631000000     8.244000000
H    -3.157000000     6.048000000     6.898000000
O    -3.794000000     7.204000000     2.046000000
H    -3.364000000     7.611000000     2.798000000
H    -3.074000000     6.930000000     1.478000000
O    -4.390000000     5.692000000     5.780000000
H    -5.053000000     5.206000000     6.271000000
H    -4.879000000     6.115000000     5.074000000
O    -5.919000000     0.058000000     5.035000000
H    -6.523000000    -0.572000000     4.643000000
H    -5.271000000    -0.482000000     5.488000000
O    -2.514000000     3.224000000     5.835000000
H    -2.076000000     3.087000000     4.995000000
H    -3.091000000     3.972000000     5.685000000
O    -3.667000000     3.753000000     2.463000000
H    -2.872000000     3.547000000     2.954000000
H    -3.467000000     3.491000000     1.564000000
O    -2.377000000     0.316000000     5.128000000
H    -1.783000000     1.057000000     5.241000000
H    -2.645000000     0.361000000     4.210000000
O    -0.356000000     5.325000000     8.055000000
H    -0.630000000     4.466000000     8.378000000
H    -1.161000000     5.843000000     8.041000000
O    -3.207000000     2.011000000     8.325000000
H    -2.304000000     2.284000000     8.488000000
H    -3.362000000     2.230000000     7.406000000
O     1.512000000     3.370000000     6.140000000
H     0.764000000     3.792000000     6.564000000
H     1.120000000     2.780000000     5.496000000
O    -1.869000000     7.861000000     4.476000000
H    -1.441000000     7.127000000     4.034000000
H    -1.799000000     7.653000000     5.408000000
O    -2.057000000    -1.013000000     8.858000000
H    -2.244000000    -0.430000000     8.123000000
H    -1.176000000    -1.345000000     8.683000000
O    -0.568000000     2.539000000     8.514000000
H    -0.368000000     2.009000000     7.743000000
H     0.215000000     2.474000000     9.060000000
O    -4.099000000    -1.123000000     6.710000000
H    -3.583000000    -1.900000000     6.925000000
H    -3.477000000    -0.532000000     6.286000000
O    -0.753000000     5.696000000     3.507000000
H     0.098000000     5.562000000     3.926000000
H    -1.002000000     4.829000000     3.188000000
O     2.791000000     4.247000000     8.396000000
H     2.387000000     3.718000000     7.708000000
H     2.924000000     5.105000000     7.991000000
O     0.135000000     0.487000000     6.760000000
H    -0.331000000     0.745000000     5.965000000
H     1.054000000     0.447000000     6.496000000
O     1.767000000     5.724000000     4.661000000
H     2.068000000     4.823000000     4.774000000
H     2.182000000     6.207000000     5.376000000
O    -5.704000000     5.504000000     2.415000000
H    -5.157000000     6.270000000     2.240000000
H    -5.082000000     4.783000000     2.516000000
