215
-1451.93124
C    -4.274000000     1.635000000    -0.906000000
H    -4.156000000     0.565000000    -0.760000000
C    -3.522000000     2.173000000    -1.998000000
C    -3.487000000     3.562000000    -2.083000000
H    -2.947000000     4.042000000    -2.895000000
C    -2.684000000     1.275000000    -2.945000000
O    -3.495000000     0.217000000    -3.436000000
H    -1.901000000     0.757000000    -2.373000000
O    -1.988000000     1.993000000    -4.055000000
C    -0.667000000     1.791000000    -4.325000000
C     0.206000000     2.688000000    -3.874000000
H    -0.057000000     3.562000000    -3.284000000
C     1.578000000     2.545000000    -3.991000000
O     2.359000000     3.401000000    -3.251000000
C     2.040000000     1.342000000    -4.536000000
C     3.468000000     0.985000000    -4.513000000
H     3.753000000     0.269000000    -5.286000000
C     3.810000000     0.243000000    -3.222000000
C     3.846000000    -1.176000000    -3.162000000
H     3.671000000    -1.764000000    -4.059000000
H     4.098000000     1.869000000    -4.631000000
C     1.144000000     0.453000000    -5.098000000
H     1.420000000    -0.496000000    -5.551000000
C    -0.244000000     0.595000000    -4.919000000
C    -1.203000000    -0.413000000    -5.430000000
H    -0.730000000    -0.966000000    -6.245000000
H    -2.043000000     0.149000000    -5.844000000
C    -1.795000000    -1.269000000    -4.303000000
C    -1.145000000    -2.527000000    -4.109000000
H    -0.316000000    -2.809000000    -4.754000000
C    -2.988000000    -1.004000000    -3.569000000
C    -3.386000000    -1.947000000    -2.610000000
H    -4.123000000    -1.594000000    -1.893000000
C    -2.637000000    -3.129000000    -2.366000000
O    -3.026000000    -3.906000000    -1.294000000
C    -2.161000000    -3.902000000    -0.089000000
C    -3.016000000    -4.073000000     1.161000000
C    -2.482000000    -4.656000000     2.269000000
H    -1.546000000    -5.200000000     2.182000000
C    -4.191000000    -3.359000000     1.337000000
H    -4.575000000    -2.829000000     0.469000000
O    -1.219000000    -4.937000000    -0.199000000
H    -1.713000000    -2.900000000    -0.024000000
C    -1.583000000    -3.451000000    -3.169000000
C    -0.778000000    -4.736000000    -3.024000000
H    -0.339000000    -4.959000000    -3.999000000
H    -1.441000000    -5.503000000    -2.620000000
C     0.327000000    -4.459000000    -1.972000000
C     1.602000000    -4.041000000    -2.385000000
H     1.771000000    -4.040000000    -3.459000000
C     0.002000000    -4.576000000    -0.573000000
C     1.041000000    -4.320000000     0.349000000
H     0.829000000    -4.448000000     1.407000000
C     2.277000000    -3.877000000    -0.083000000
O     3.196000000    -3.502000000     0.873000000
C     3.267000000    -2.091000000     1.072000000
C     3.195000000    -1.646000000     2.505000000
C     2.551000000    -2.510000000     3.398000000
H     2.300000000    -3.514000000     3.066000000
C     3.627000000    -0.459000000     2.984000000
H     4.203000000     0.215000000     2.355000000
O     4.476000000    -1.707000000     0.384000000
H     2.411000000    -1.591000000     0.595000000
C     2.605000000    -3.754000000    -1.471000000
C     3.988000000    -3.393000000    -1.954000000
H     4.178000000    -3.860000000    -2.923000000
H     4.787000000    -3.885000000    -1.394000000
C     4.108000000    -1.865000000    -1.964000000
C     4.285000000    -1.088000000    -0.839000000
C     4.224000000     0.279000000    -0.858000000
H     4.325000000     0.744000000     0.119000000
C     4.108000000     0.997000000    -2.052000000
O     4.111000000     2.370000000    -2.051000000
C     2.772000000     2.872000000    -1.958000000
H     2.183000000     1.971000000    -1.731000000
C     2.782000000     3.947000000    -0.814000000
C     1.578000000     4.731000000    -0.615000000
H     0.734000000     4.549000000    -1.275000000
C     3.830000000     4.103000000     0.123000000
H     4.742000000     3.533000000    -0.035000000
C     3.621000000     4.953000000     1.158000000
O     4.622000000     5.105000000     2.130000000
C     2.520000000     5.795000000     1.278000000
H     2.462000000     6.438000000     2.153000000
C     1.455000000     5.627000000     0.418000000
O     0.258000000     6.242000000     0.732000000
C    -0.631000000     6.701000000    -0.172000000
C    -1.821000000     6.013000000    -0.166000000
H    -1.922000000     5.051000000     0.331000000
C    -0.445000000     7.953000000    -0.790000000
H     0.525000000     8.441000000    -0.734000000
C    -1.530000000     8.413000000    -1.515000000
H    -1.495000000     9.408000000    -1.951000000
C    -2.696000000     7.631000000    -1.731000000
H    -3.578000000     8.021000000    -2.232000000
C    -2.800000000     6.461000000    -0.996000000
O    -4.020000000     5.759000000    -1.161000000
C    -4.033000000     4.332000000    -1.092000000
C    -4.913000000     3.750000000    -0.136000000
H    -5.394000000     4.421000000     0.571000000
C    -5.035000000     2.422000000    -0.039000000
O    -5.473000000     1.792000000     1.140000000
C    -6.168000000     0.637000000     1.059000000
C    -5.775000000    -0.442000000     1.907000000
H    -4.856000000    -0.307000000     2.472000000
C    -7.342000000     0.591000000     0.324000000
H    -7.758000000     1.346000000    -0.338000000
C    -7.993000000    -0.702000000     0.282000000
H    -8.819000000    -0.859000000    -0.407000000
C    -7.606000000    -1.725000000     1.159000000
H    -8.159000000    -2.659000000     1.201000000
C    -6.548000000    -1.583000000     2.015000000
O    -6.059000000    -2.657000000     2.777000000
C    -4.952000000    -3.362000000     2.517000000
C    -4.372000000    -3.978000000     3.580000000
H    -4.925000000    -4.046000000     4.514000000
C    -3.138000000    -4.568000000     3.484000000
O    -2.564000000    -5.194000000     4.515000000
C    -1.209000000    -5.123000000     4.788000000
C    -0.544000000    -3.960000000     5.073000000
H    -1.031000000    -2.991000000     5.146000000
C    -0.515000000    -6.329000000     4.692000000
H    -1.046000000    -7.230000000     4.397000000
C     0.860000000    -6.318000000     4.903000000
H     1.324000000    -7.298000000     4.981000000
C     1.564000000    -5.153000000     5.171000000
H     2.637000000    -5.230000000     5.327000000
C     0.832000000    -3.964000000     5.241000000
O     1.578000000    -2.842000000     5.560000000
C     2.356000000    -2.104000000     4.702000000
C     2.750000000    -0.858000000     5.115000000
H     2.391000000    -0.519000000     6.083000000
C     3.453000000    -0.054000000     4.286000000
O     3.840000000     1.170000000     4.738000000
C     4.707000000     2.045000000     4.132000000
C     6.050000000     1.851000000     4.273000000
H     6.540000000     1.022000000     4.777000000
C     6.933000000     2.808000000     3.683000000
H     8.007000000     2.654000000     3.745000000
C     6.435000000     3.890000000     2.971000000
H     7.081000000     4.629000000     2.504000000
C     5.073000000     4.061000000     2.869000000
C     4.188000000     3.155000000     3.509000000
H     3.104000000     3.228000000     3.536000000
C    -0.736000000     1.863000000     0.678000000
H    -0.972000000     2.858000000     0.308000000
C    -0.251000000     0.937000000    -0.288000000
H    -0.053000000     1.258000000    -1.307000000
C    -0.061000000    -0.382000000     0.097000000
H     0.371000000    -0.985000000    -0.710000000
C    -0.266000000    -0.788000000     1.365000000
H    -0.131000000    -1.838000000     1.611000000
C    -0.617000000     0.143000000     2.331000000
H    -0.873000000    -0.268000000     3.304000000
C    -0.886000000     1.453000000     2.047000000
C    -1.490000000     2.323000000     3.173000000
O    -1.434000000     2.007000000     4.341000000
O    -1.890000000     3.446000000     2.869000000
O    -5.937000000     5.443000000     4.980000000
H    -6.893000000     5.490000000     4.999000000
H    -5.738000000     4.945000000     4.187000000
O    -4.538000000     1.093000000     7.048000000
H    -4.291000000     0.171000000     6.972000000
H    -5.194000000     1.109000000     7.745000000
O    -3.142000000     6.398000000     5.225000000
H    -3.952000000     6.132000000     5.660000000
H    -2.729000000     5.576000000     4.964000000
O    -2.678000000     2.878000000     6.528000000
H    -3.519000000     2.421000000     6.523000000
H    -2.221000000     2.547000000     5.755000000
O    -1.739000000    -0.410000000     5.793000000
H    -1.621000000     0.486000000     5.478000000
H    -2.688000000    -0.529000000     5.830000000
O    -3.772000000     4.904000000     8.099000000
H    -3.183000000     4.401000000     7.537000000
H    -4.576000000     4.386000000     8.128000000
O     1.009000000     2.500000000     5.070000000
H     0.081000000     2.263000000     5.068000000
H     1.350000000     2.141000000     4.251000000
O     0.426000000     9.277000000     2.119000000
H     0.926000000     9.092000000     1.323000000
H    -0.302000000     8.656000000     2.094000000
O    -1.554000000     8.449000000     4.605000000
H    -1.915000000     7.732000000     5.126000000
H    -2.083000000     9.209000000     4.845000000
O    -0.497000000    -0.818000000     8.079000000
H    -0.742000000    -0.642000000     7.171000000
H    -1.133000000    -0.325000000     8.598000000
O    -1.974000000     2.640000000     9.153000000
H    -1.344000000     3.360000000     9.161000000
H    -2.207000000     2.536000000     8.230000000
O    -7.333000000     2.693000000     6.227000000
H    -8.040000000     2.888000000     5.611000000
H    -6.689000000     2.213000000     5.708000000
O     0.761000000     5.078000000     5.885000000
H     0.921000000     4.135000000     5.881000000
H     0.420000000     5.267000000     5.011000000
O     1.332000000     7.428000000     7.419000000
H     0.849000000     7.988000000     6.813000000
H     1.306000000     6.560000000     7.016000000
O     0.065000000     5.110000000     3.340000000
H     0.226000000     5.424000000     2.450000000
H    -0.695000000     4.534000000     3.256000000
O    -0.600000000     4.982000000     8.715000000
H    -1.367000000     5.528000000     8.544000000
H    -0.016000000     5.150000000     7.976000000
O     2.640000000     2.137000000     7.272000000
H     2.027000000     2.219000000     6.542000000
H     3.387000000     2.680000000     7.021000000
O    -4.212000000     4.531000000     2.921000000
H    -3.813000000     5.399000000     2.988000000
H    -3.481000000     3.947000000     2.718000000
O    -6.334000000     2.694000000     3.724000000
H    -6.533000000     2.018000000     3.077000000
H    -5.780000000     3.319000000     3.256000000
