215
-1411.86230
C    -4.486000000     1.866000000    -1.516000000
H    -4.760000000     0.826000000    -1.360000000
C    -3.283000000     2.344000000    -2.154000000
C    -2.999000000     3.728000000    -2.086000000
H    -2.126000000     4.061000000    -2.641000000
C    -2.446000000     1.424000000    -2.977000000
O    -3.196000000     0.268000000    -3.589000000
H    -1.729000000     1.084000000    -2.216000000
O    -1.675000000     2.173000000    -4.030000000
C    -0.386000000     1.920000000    -4.192000000
C     0.497000000     2.863000000    -3.631000000
H     0.258000000     3.875000000    -3.315000000
C     1.817000000     2.521000000    -3.598000000
O     2.584000000     3.363000000    -2.818000000
C     2.249000000     1.292000000    -4.044000000
C     3.799000000     0.975000000    -3.989000000
H     4.094000000     0.376000000    -4.852000000
C     4.050000000     0.227000000    -2.727000000
C     4.050000000    -1.194000000    -2.753000000
H     3.709000000    -1.709000000    -3.648000000
H     4.410000000     1.880000000    -3.991000000
C     1.375000000     0.388000000    -4.616000000
H     1.732000000    -0.539000000    -5.058000000
C     0.050000000     0.725000000    -4.722000000
C    -0.976000000    -0.242000000    -5.358000000
H    -0.526000000    -0.716000000    -6.233000000
H    -1.861000000     0.262000000    -5.752000000
C    -1.442000000    -1.250000000    -4.348000000
C    -0.918000000    -2.520000000    -4.305000000
H    -0.238000000    -2.833000000    -5.093000000
C    -2.560000000    -0.960000000    -3.593000000
C    -3.051000000    -1.876000000    -2.669000000
H    -3.940000000    -1.524000000    -2.150000000
C    -2.451000000    -3.081000000    -2.559000000
O    -2.888000000    -3.969000000    -1.598000000
C    -2.061000000    -3.999000000    -0.367000000
C    -2.998000000    -3.970000000     0.951000000
C    -2.784000000    -4.813000000     2.034000000
H    -2.216000000    -5.718000000     1.834000000
C    -3.979000000    -3.004000000     1.038000000
H    -4.147000000    -2.343000000     0.191000000
O    -1.052000000    -5.074000000    -0.320000000
H    -1.538000000    -3.040000000    -0.236000000
C    -1.297000000    -3.375000000    -3.263000000
C    -0.425000000    -4.709000000    -3.139000000
H     0.107000000    -5.012000000    -4.044000000
H    -1.144000000    -5.515000000    -2.980000000
C     0.605000000    -4.557000000    -2.012000000
C     1.953000000    -4.156000000    -2.294000000
H     2.225000000    -4.131000000    -3.346000000
C     0.276000000    -4.827000000    -0.687000000
C     1.172000000    -4.653000000     0.376000000
H     0.907000000    -4.768000000     1.424000000
C     2.405000000    -4.049000000     0.100000000
O     3.078000000    -3.560000000     1.218000000
C     3.266000000    -2.163000000     1.415000000
C     2.988000000    -1.771000000     2.868000000
C     1.995000000    -2.439000000     3.549000000
H     1.299000000    -3.111000000     3.054000000
C     3.603000000    -0.695000000     3.511000000
H     4.274000000    -0.083000000     2.914000000
O     4.595000000    -1.721000000     0.891000000
H     2.515000000    -1.715000000     0.747000000
C     2.873000000    -3.885000000    -1.251000000
C     4.335000000    -3.472000000    -1.627000000
H     4.640000000    -3.891000000    -2.588000000
H     5.102000000    -3.831000000    -0.937000000
C     4.334000000    -1.906000000    -1.613000000
C     4.547000000    -1.184000000    -0.399000000
C     4.524000000     0.208000000    -0.383000000
H     4.544000000     0.735000000     0.568000000
C     4.286000000     0.942000000    -1.536000000
O     4.243000000     2.362000000    -1.473000000
C     2.889000000     2.814000000    -1.501000000
H     2.215000000     1.976000000    -1.271000000
C     2.673000000     3.834000000    -0.418000000
C     1.785000000     4.883000000    -0.621000000
H     1.256000000     4.962000000    -1.568000000
C     3.369000000     3.814000000     0.782000000
H     4.165000000     3.125000000     1.053000000
C     3.097000000     4.779000000     1.847000000
O     3.734000000     4.741000000     3.067000000
C     2.145000000     5.724000000     1.596000000
H     1.931000000     6.506000000     2.320000000
C     1.521000000     5.801000000     0.373000000
O     0.688000000     6.923000000     0.175000000
C    -0.191000000     6.915000000    -0.901000000
C    -1.489000000     6.328000000    -0.732000000
H    -1.741000000     5.974000000     0.264000000
C     0.082000000     7.550000000    -2.105000000
H     1.061000000     7.978000000    -2.307000000
C    -0.832000000     7.616000000    -3.122000000
H    -0.699000000     8.158000000    -4.054000000
C    -2.095000000     7.030000000    -2.964000000
H    -2.809000000     7.109000000    -3.779000000
C    -2.436000000     6.474000000    -1.754000000
O    -3.700000000     5.946000000    -1.503000000
C    -3.899000000     4.604000000    -1.516000000
C    -5.012000000     4.134000000    -0.758000000
H    -5.751000000     4.735000000    -0.234000000
C    -5.256000000     2.810000000    -0.829000000
O    -6.343000000     2.315000000    -0.098000000
C    -6.552000000     0.988000000     0.103000000
C    -6.037000000     0.280000000     1.166000000
H    -5.399000000     0.804000000     1.874000000
C    -7.472000000     0.348000000    -0.753000000
H    -7.950000000     0.877000000    -1.574000000
C    -7.883000000    -0.956000000    -0.508000000
H    -8.580000000    -1.433000000    -1.192000000
C    -7.254000000    -1.709000000     0.491000000
H    -7.601000000    -2.684000000     0.823000000
C    -6.228000000    -1.092000000     1.266000000
O    -5.700000000    -1.778000000     2.307000000
C    -4.772000000    -2.784000000     2.233000000
C    -4.475000000    -3.654000000     3.313000000
H    -5.079000000    -3.656000000     4.216000000
C    -3.426000000    -4.607000000     3.249000000
O    -3.059000000    -5.412000000     4.309000000
C    -1.865000000    -5.209000000     4.933000000
C    -1.265000000    -3.946000000     5.000000000
H    -1.770000000    -3.063000000     4.616000000
C    -1.207000000    -6.346000000     5.380000000
H    -1.770000000    -7.275000000     5.421000000
C     0.075000000    -6.293000000     5.807000000
H     0.428000000    -7.240000000     6.208000000
C     0.712000000    -5.075000000     5.842000000
H     1.691000000    -4.921000000     6.288000000
C     0.037000000    -3.888000000     5.446000000
O     0.612000000    -2.641000000     5.566000000
C     1.738000000    -2.061000000     4.882000000
C     2.340000000    -1.029000000     5.479000000
H     2.053000000    -0.818000000     6.506000000
C     3.265000000    -0.319000000     4.808000000
O     3.896000000     0.684000000     5.491000000
C     4.574000000     1.648000000     4.845000000
C     5.935000000     1.731000000     4.840000000
H     6.481000000     0.943000000     5.352000000
C     6.540000000     2.761000000     4.101000000
H     7.606000000     2.820000000     3.900000000
C     5.808000000     3.785000000     3.542000000
H     6.349000000     4.600000000     3.068000000
C     4.493000000     3.744000000     3.597000000
C     3.818000000     2.645000000     4.124000000
H     2.738000000     2.591000000     4.232000000
C    -0.133000000     1.851000000     0.873000000
H    -0.072000000     2.918000000     0.676000000
C     0.084000000     0.889000000    -0.099000000
H     0.240000000     1.264000000    -1.107000000
C     0.060000000    -0.448000000     0.185000000
H     0.057000000    -1.205000000    -0.589000000
C    -0.240000000    -0.837000000     1.458000000
H    -0.195000000    -1.901000000     1.678000000
C    -0.349000000     0.085000000     2.464000000
H    -0.474000000    -0.257000000     3.488000000
C    -0.349000000     1.469000000     2.244000000
C    -0.594000000     2.488000000     3.397000000
O    -0.610000000     2.124000000     4.506000000
O    -0.981000000     3.599000000     3.121000000
O    -2.589000000     7.462000000     6.980000000
H    -2.376000000     6.694000000     7.510000000
H    -3.264000000     7.920000000     7.481000000
O    -3.936000000    -0.958000000     5.306000000
H    -4.837000000    -1.122000000     5.585000000
H    -4.000000000    -0.810000000     4.362000000
O    -2.964000000     4.541000000     5.901000000
H    -3.168000000     4.313000000     4.994000000
H    -2.063000000     4.862000000     5.870000000
O    -1.811000000     0.897000000     6.643000000
H    -1.156000000     1.200000000     6.014000000
H    -2.502000000     0.513000000     6.103000000
O    -4.620000000     5.077000000     8.207000000
H    -4.721000000     5.998000000     7.966000000
H    -4.064000000     4.709000000     7.520000000
O     1.253000000     2.519000000     6.380000000
H     0.719000000     2.564000000     5.587000000
H     1.782000000     3.317000000     6.358000000
O    -0.344000000     9.348000000     2.928000000
H    -0.276000000     9.530000000     3.865000000
H    -0.244000000     8.399000000     2.861000000
O    -0.538000000    -1.370000000     7.885000000
H    -0.388000000    -1.517000000     6.951000000
H    -1.461000000    -1.123000000     7.943000000
O    -2.437000000     2.750000000     8.220000000
H    -1.998000000     2.103000000     7.668000000
H    -2.190000000     3.594000000     7.842000000
O    -5.709000000     3.313000000     5.566000000
H    -6.213000000     3.175000000     4.764000000
H    -4.798000000     3.338000000     5.274000000
O     2.211000000     5.036000000     6.749000000
H     1.341000000     5.274000000     6.430000000
H     2.077000000     4.816000000     7.671000000
O    -3.348000000     7.152000000     3.027000000
H    -4.076000000     7.162000000     2.406000000
H    -3.577000000     6.466000000     3.654000000
O     1.168000000     1.232000000     8.801000000
H     0.925000000     1.638000000     7.969000000
H     0.862000000     0.328000000     8.725000000
O    -0.148000000     5.000000000     5.355000000
H    -0.374000000     4.199000000     4.881000000
H    -0.127000000     5.679000000     4.681000000
O    -1.094000000     5.295000000     8.488000000
H    -0.732000000     6.052000000     8.948000000
H    -0.769000000     4.540000000     8.977000000
O     3.501000000     6.663000000     5.166000000
H     3.847000000     6.116000000     4.461000000
H     2.978000000     6.064000000     5.699000000
O    -3.148000000    -1.512000000     7.889000000
H    -3.501000000    -1.166000000     7.069000000
H    -3.655000000    -2.308000000     8.050000000
O    -0.641000000     6.497000000     2.853000000
H    -0.659000000     5.541000000     2.802000000
H    -1.540000000     6.741000000     3.072000000
O    -3.530000000     4.290000000     3.377000000
H    -2.587000000     4.128000000     3.345000000
H    -3.873000000     3.861000000     2.594000000
