215
-1455.21424
C    -4.611000000     1.235000000    -0.956000000
H    -4.792000000     0.171000000    -1.082000000
C    -3.675000000     1.787000000    -1.814000000
C    -3.480000000     3.186000000    -1.785000000
H    -2.808000000     3.718000000    -2.454000000
C    -2.822000000     0.883000000    -2.699000000
O    -3.581000000    -0.218000000    -3.291000000
H    -1.922000000     0.567000000    -2.152000000
O    -2.316000000     1.590000000    -3.855000000
C    -0.988000000     1.472000000    -4.100000000
C    -0.190000000     2.505000000    -3.622000000
H    -0.662000000     3.398000000    -3.222000000
C     1.202000000     2.310000000    -3.723000000
O     2.018000000     3.210000000    -3.101000000
C     1.750000000     1.232000000    -4.465000000
C     3.236000000     0.947000000    -4.586000000
H     3.395000000     0.338000000    -5.478000000
C     3.650000000     0.176000000    -3.307000000
C     3.786000000    -1.243000000    -3.261000000
H     3.396000000    -1.870000000    -4.058000000
H     3.743000000     1.911000000    -4.676000000
C     0.853000000     0.250000000    -5.006000000
H     1.223000000    -0.646000000    -5.497000000
C    -0.527000000     0.392000000    -4.811000000
C    -1.440000000    -0.759000000    -5.295000000
H    -0.974000000    -1.295000000    -6.124000000
H    -2.325000000    -0.303000000    -5.744000000
C    -1.836000000    -1.643000000    -4.168000000
C    -1.087000000    -2.781000000    -3.991000000
H    -0.187000000    -3.021000000    -4.551000000
C    -3.007000000    -1.414000000    -3.393000000
C    -3.266000000    -2.275000000    -2.347000000
H    -4.132000000    -2.079000000    -1.721000000
C    -2.514000000    -3.428000000    -2.115000000
O    -2.737000000    -4.130000000    -0.999000000
C    -1.837000000    -3.911000000     0.176000000
C    -2.720000000    -3.697000000     1.420000000
C    -2.092000000    -3.697000000     2.682000000
H    -1.027000000    -3.909000000     2.714000000
C    -4.081000000    -3.361000000     1.496000000
H    -4.626000000    -3.321000000     0.557000000
O    -0.893000000    -5.011000000     0.395000000
H    -1.279000000    -2.985000000    -0.023000000
C    -1.428000000    -3.654000000    -2.972000000
C    -0.617000000    -4.903000000    -2.783000000
H    -0.277000000    -5.245000000    -3.763000000
H    -1.237000000    -5.661000000    -2.300000000
C     0.452000000    -4.666000000    -1.692000000
C     1.733000000    -4.288000000    -2.229000000
H     1.854000000    -4.044000000    -3.281000000
C     0.257000000    -4.890000000    -0.291000000
C     1.366000000    -4.583000000     0.534000000
H     1.392000000    -4.682000000     1.617000000
C     2.522000000    -4.055000000    -0.022000000
O     3.479000000    -3.394000000     0.784000000
C     3.438000000    -1.944000000     0.818000000
C     3.373000000    -1.488000000     2.289000000
C     2.982000000    -2.288000000     3.340000000
H     2.746000000    -3.334000000     3.161000000
C     3.787000000    -0.150000000     2.638000000
H     4.225000000     0.561000000     1.941000000
O     4.726000000    -1.608000000     0.265000000
H     2.542000000    -1.607000000     0.276000000
C     2.781000000    -4.061000000    -1.398000000
C     4.103000000    -3.467000000    -2.040000000
H     4.249000000    -3.891000000    -3.035000000
H     4.948000000    -3.814000000    -1.443000000
C     4.123000000    -1.879000000    -2.115000000
C     4.528000000    -1.117000000    -0.984000000
C     4.432000000     0.253000000    -0.976000000
H     4.667000000     0.912000000    -0.145000000
C     4.031000000     0.901000000    -2.147000000
O     3.940000000     2.256000000    -2.045000000
C     2.641000000     2.832000000    -1.812000000
H     2.130000000     2.046000000    -1.236000000
C     2.646000000     4.085000000    -0.942000000
C     1.427000000     4.790000000    -0.787000000
H     0.594000000     4.579000000    -1.452000000
C     3.689000000     4.407000000    -0.091000000
H     4.554000000     3.750000000    -0.085000000
C     3.558000000     5.439000000     0.876000000
O     4.629000000     5.546000000     1.731000000
C     2.380000000     6.188000000     0.972000000
H     2.209000000     7.007000000     1.666000000
C     1.312000000     5.820000000     0.196000000
O     0.085000000     6.373000000     0.457000000
C    -0.917000000     6.514000000    -0.474000000
C    -2.112000000     5.908000000    -0.289000000
H    -2.270000000     5.270000000     0.577000000
C    -0.705000000     7.241000000    -1.683000000
H     0.323000000     7.565000000    -1.823000000
C    -1.697000000     7.356000000    -2.614000000
H    -1.412000000     7.868000000    -3.530000000
C    -2.892000000     6.716000000    -2.412000000
H    -3.682000000     6.720000000    -3.160000000
C    -3.074000000     5.975000000    -1.238000000
O    -4.214000000     5.305000000    -0.986000000
C    -4.215000000     3.965000000    -0.898000000
C    -5.166000000     3.404000000    -0.087000000
H    -5.753000000     4.078000000     0.532000000
C    -5.371000000     2.026000000    -0.081000000
O    -6.419000000     1.531000000     0.686000000
C    -6.801000000     0.208000000     0.703000000
C    -6.301000000    -0.568000000     1.719000000
H    -5.867000000    -0.037000000     2.562000000
C    -7.605000000    -0.280000000    -0.237000000
H    -7.937000000     0.379000000    -1.035000000
C    -7.878000000    -1.657000000    -0.315000000
H    -8.593000000    -2.050000000    -1.033000000
C    -7.308000000    -2.542000000     0.640000000
H    -7.356000000    -3.628000000     0.641000000
C    -6.627000000    -1.962000000     1.679000000
O    -6.128000000    -2.796000000     2.633000000
C    -4.801000000    -3.189000000     2.650000000
C    -4.177000000    -3.161000000     3.862000000
H    -4.732000000    -2.903000000     4.761000000
C    -2.822000000    -3.428000000     3.888000000
O    -2.213000000    -3.176000000     5.136000000
C    -0.980000000    -3.636000000     5.576000000
C     0.209000000    -2.916000000     5.445000000
H     0.176000000    -1.903000000     5.052000000
C    -0.965000000    -4.934000000     6.088000000
H    -1.888000000    -5.509000000     6.082000000
C     0.276000000    -5.536000000     6.514000000
H     0.178000000    -6.503000000     7.001000000
C     1.520000000    -4.767000000     6.344000000
H     2.496000000    -5.179000000     6.587000000
C     1.444000000    -3.463000000     5.796000000
O     2.648000000    -2.747000000     5.662000000
C     2.833000000    -1.821000000     4.664000000
C     3.177000000    -0.519000000     4.987000000
H     3.026000000    -0.122000000     5.988000000
C     3.667000000     0.303000000     3.971000000
O     4.095000000     1.545000000     4.432000000
C     4.945000000     2.449000000     3.755000000
C     6.351000000     2.312000000     3.833000000
H     6.805000000     1.527000000     4.432000000
C     7.137000000     3.235000000     3.227000000
H     8.222000000     3.202000000     3.282000000
C     6.527000000     4.343000000     2.580000000
H     7.266000000     5.033000000     2.181000000
C     5.137000000     4.461000000     2.432000000
C     4.387000000     3.495000000     3.013000000
H     3.313000000     3.614000000     2.898000000
C    -0.824000000     1.497000000     0.333000000
H    -0.962000000     2.534000000     0.039000000
C    -0.035000000     0.735000000    -0.532000000
H     0.294000000     1.059000000    -1.516000000
C     0.276000000    -0.533000000    -0.044000000
H     0.797000000    -1.178000000    -0.748000000
C    -0.199000000    -1.025000000     1.129000000
H     0.056000000    -2.017000000     1.494000000
C    -0.985000000    -0.227000000     1.998000000
H    -1.331000000    -0.652000000     2.937000000
C    -1.249000000     1.097000000     1.606000000
C    -1.814000000     2.214000000     2.535000000
O    -2.205000000     1.924000000     3.669000000
O    -1.636000000     3.402000000     2.318000000
O    -4.137000000    -0.595000000     5.955000000
H    -4.646000000    -0.110000000     5.307000000
H    -4.792000000    -1.063000000     6.473000000
O    -0.703000000     7.204000000     4.463000000
H    -1.243000000     6.544000000     4.029000000
H    -1.333000000     7.793000000     4.879000000
O    -3.076000000     2.407000000     6.052000000
H    -3.665000000     1.833000000     6.542000000
H    -3.083000000     2.055000000     5.162000000
O    -1.432000000    -0.292000000     5.367000000
H    -1.466000000     0.432000000     4.742000000
H    -2.348000000    -0.538000000     5.497000000
O    -6.386000000     0.834000000     4.937000000
H    -7.045000000     1.133000000     4.311000000
H    -6.632000000    -0.071000000     5.130000000
O    -0.638000000     3.270000000     6.880000000
H     0.200000000     3.072000000     6.462000000
H    -1.282000000     2.783000000     6.366000000
O    -6.804000000     4.438000000     3.733000000
H    -6.095000000     3.949000000     3.313000000
H    -7.335000000     4.761000000     3.005000000
O     1.375000000     5.514000000     5.611000000
H     0.598000000     5.917000000     5.224000000
H     1.228000000     4.573000000     5.517000000
O     0.530000000     0.145000000     7.288000000
H     0.840000000     0.970000000     6.915000000
H     0.169000000    -0.334000000     6.541000000
O    -6.744000000     3.005000000     6.890000000
H    -6.494000000     3.795000000     6.410000000
H    -6.607000000     2.292000000     6.266000000
O    -2.808000000     4.332000000     8.156000000
H    -1.932000000     4.071000000     7.870000000
H    -3.397000000     3.729000000     7.703000000
O    -4.563000000     6.953000000     4.124000000
H    -4.541000000     7.405000000     3.281000000
H    -3.844000000     6.322000000     4.077000000
O    -6.428000000     5.756000000     5.911000000
H    -5.784000000     6.387000000     5.592000000
H    -6.664000000     5.242000000     5.138000000
O    -8.697000000     1.843000000     3.771000000
H    -8.215000000     2.072000000     2.977000000
H    -9.324000000     2.558000000     3.885000000
O     0.902000000     3.982000000     2.777000000
H    -0.036000000     3.812000000     2.869000000
H     1.032000000     4.110000000     1.838000000
O     1.350000000     2.426000000     4.895000000
H     1.505000000     1.586000000     4.463000000
H     1.152000000     3.030000000     4.180000000
O    -1.749000000    -1.334000000     8.270000000
H    -1.729000000    -0.714000000     7.540000000
H    -0.835000000    -1.411000000     8.543000000
O    -2.704000000     5.050000000     4.106000000
H    -2.465000000     4.345000000     4.709000000
H    -2.288000000     4.808000000     3.279000000
O    -4.721000000     2.936000000     2.921000000
H    -4.036000000     3.399000000     3.403000000
H    -4.253000000     2.465000000     2.232000000
