215
-1480.31717
C    -5.021000000     1.209000000    -2.326000000
H    -5.217000000     0.196000000    -2.668000000
C    -3.771000000     1.767000000    -2.673000000
C    -3.499000000     3.096000000    -2.373000000
H    -2.522000000     3.559000000    -2.487000000
C    -2.635000000     0.899000000    -3.297000000
O    -3.153000000    -0.404000000    -3.851000000
H    -2.035000000     0.672000000    -2.403000000
O    -1.893000000     1.649000000    -4.241000000
C    -0.496000000     1.422000000    -4.300000000
C     0.279000000     2.459000000    -3.777000000
H    -0.216000000     3.353000000    -3.408000000
C     1.627000000     2.202000000    -3.585000000
O     2.358000000     3.151000000    -2.899000000
C     2.217000000     1.011000000    -4.038000000
C     3.757000000     0.891000000    -3.876000000
H     4.054000000     0.208000000    -4.675000000
C     4.159000000     0.233000000    -2.604000000
C     4.238000000    -1.171000000    -2.490000000
H     3.966000000    -1.868000000    -3.279000000
H     4.328000000     1.815000000    -3.982000000
C     1.503000000     0.055000000    -4.672000000
H     1.969000000    -0.876000000    -4.985000000
C     0.116000000     0.227000000    -4.791000000
C    -0.747000000    -0.952000000    -5.361000000
H    -0.272000000    -1.419000000    -6.227000000
H    -1.531000000    -0.369000000    -5.849000000
C    -1.219000000    -1.884000000    -4.276000000
C    -0.505000000    -2.970000000    -3.971000000
H     0.423000000    -3.173000000    -4.499000000
C    -2.396000000    -1.536000000    -3.617000000
C    -2.874000000    -2.385000000    -2.575000000
H    -3.843000000    -2.158000000    -2.138000000
C    -2.149000000    -3.532000000    -2.300000000
O    -2.553000000    -4.249000000    -1.232000000
C    -1.863000000    -3.983000000     0.006000000
C    -2.776000000    -3.710000000     1.201000000
C    -2.276000000    -3.481000000     2.517000000
H    -1.252000000    -3.754000000     2.758000000
C    -4.148000000    -3.512000000     0.934000000
H    -4.580000000    -3.564000000    -0.063000000
O    -0.828000000    -4.939000000     0.293000000
H    -1.362000000    -3.039000000    -0.255000000
C    -0.940000000    -3.812000000    -2.954000000
C    -0.125000000    -4.973000000    -2.521000000
H     0.416000000    -5.368000000    -3.383000000
H    -0.717000000    -5.798000000    -2.120000000
C     0.840000000    -4.593000000    -1.406000000
C     2.133000000    -4.106000000    -1.757000000
H     2.580000000    -4.118000000    -2.748000000
C     0.458000000    -4.652000000    -0.057000000
C     1.343000000    -4.235000000     0.911000000
H     1.074000000    -4.255000000     1.964000000
C     2.616000000    -3.768000000     0.622000000
O     3.312000000    -3.243000000     1.668000000
C     3.359000000    -1.778000000     1.783000000
C     3.417000000    -1.384000000     3.228000000
C     2.654000000    -2.070000000     4.171000000
H     2.086000000    -2.953000000     3.890000000
C     4.025000000    -0.187000000     3.685000000
H     4.593000000     0.325000000     2.912000000
O     4.638000000    -1.249000000     1.196000000
H     2.566000000    -1.164000000     1.331000000
C     3.027000000    -3.696000000    -0.690000000
C     4.446000000    -3.200000000    -0.962000000
H     4.931000000    -3.708000000    -1.798000000
H     5.116000000    -3.455000000    -0.139000000
C     4.515000000    -1.729000000    -1.227000000
C     4.594000000    -0.849000000    -0.101000000
C     4.672000000     0.520000000    -0.285000000
H     4.765000000     1.108000000     0.625000000
C     4.417000000     1.041000000    -1.489000000
O     4.117000000     2.367000000    -1.554000000
C     2.715000000     2.763000000    -1.591000000
H     2.091000000     1.906000000    -1.297000000
C     2.367000000     3.940000000    -0.655000000
C     1.393000000     4.931000000    -0.946000000
H     0.755000000     5.042000000    -1.819000000
C     3.191000000     4.123000000     0.492000000
H     3.995000000     3.428000000     0.718000000
C     2.915000000     5.062000000     1.487000000
O     3.393000000     4.991000000     2.756000000
C     1.872000000     5.968000000     1.270000000
H     1.667000000     6.700000000     2.046000000
C     1.149000000     5.920000000     0.062000000
O     0.172000000     6.837000000    -0.057000000
C    -0.896000000     6.759000000    -0.936000000
C    -2.079000000     6.114000000    -0.620000000
H    -2.194000000     5.705000000     0.381000000
C    -0.656000000     7.178000000    -2.241000000
H     0.247000000     7.655000000    -2.613000000
C    -1.661000000     6.920000000    -3.217000000
H    -1.511000000     7.287000000    -4.229000000
C    -2.850000000     6.213000000    -2.890000000
H    -3.674000000     5.936000000    -3.542000000
C    -2.992000000     5.812000000    -1.546000000
O    -4.134000000     5.145000000    -1.131000000
C    -4.399000000     3.836000000    -1.566000000
C    -5.617000000     3.187000000    -1.144000000
H    -6.294000000     3.669000000    -0.444000000
C    -5.942000000     1.919000000    -1.565000000
O    -7.079000000     1.366000000    -1.082000000
C    -7.199000000     0.050000000    -0.708000000
C    -6.562000000    -0.576000000     0.366000000
H    -6.134000000     0.082000000     1.118000000
C    -7.980000000    -0.735000000    -1.580000000
H    -8.514000000    -0.359000000    -2.449000000
C    -8.086000000    -2.112000000    -1.397000000
H    -8.754000000    -2.743000000    -1.976000000
C    -7.471000000    -2.684000000    -0.325000000
H    -7.575000000    -3.737000000    -0.074000000
C    -6.676000000    -1.937000000     0.562000000
O    -6.172000000    -2.617000000     1.658000000
C    -4.915000000    -2.890000000     1.953000000
C    -4.392000000    -2.710000000     3.229000000
H    -5.061000000    -2.427000000     4.038000000
C    -3.055000000    -2.919000000     3.514000000
O    -2.528000000    -2.550000000     4.718000000
C    -1.430000000    -3.146000000     5.252000000
C    -0.200000000    -2.477000000     5.417000000
H    -0.080000000    -1.485000000     4.988000000
C    -1.568000000    -4.476000000     5.668000000
H    -2.476000000    -5.026000000     5.433000000
C    -0.578000000    -5.099000000     6.409000000
H    -0.641000000    -6.174000000     6.555000000
C     0.642000000    -4.445000000     6.638000000
H     1.427000000    -4.876000000     7.255000000
C     0.860000000    -3.112000000     6.139000000
O     2.063000000    -2.431000000     6.436000000
C     2.698000000    -1.656000000     5.479000000
C     3.410000000    -0.565000000     5.925000000
H     3.570000000    -0.415000000     6.990000000
C     4.002000000     0.245000000     5.000000000
O     4.749000000     1.342000000     5.398000000
C     5.140000000     2.342000000     4.516000000
C     6.399000000     2.256000000     3.891000000
H     7.039000000     1.396000000     4.074000000
C     6.730000000     3.296000000     2.956000000
H     7.688000000     3.278000000     2.442000000
C     5.715000000     4.195000000     2.541000000
H     5.806000000     4.873000000     1.697000000
C     4.460000000     4.154000000     3.177000000
C     4.195000000     3.231000000     4.134000000
H     3.158000000     3.092000000     4.429000000
C    -1.352000000     1.054000000     0.173000000
H    -1.693000000     1.952000000    -0.334000000
C    -0.276000000     0.419000000    -0.494000000
H     0.086000000     0.844000000    -1.427000000
C     0.248000000    -0.747000000     0.024000000
H     1.069000000    -1.310000000    -0.466000000
C    -0.170000000    -1.163000000     1.308000000
H     0.305000000    -1.984000000     1.838000000
C    -1.093000000    -0.397000000     2.002000000
H    -1.313000000    -0.823000000     2.977000000
C    -1.718000000     0.724000000     1.437000000
C    -2.810000000     1.527000000     2.202000000
O    -3.126000000     1.226000000     3.324000000
O    -3.141000000     2.638000000     1.786000000
O    -7.255000000     1.269000000     6.348000000
H    -6.601000000     1.746000000     5.837000000
H    -7.661000000     1.937000000     6.900000000
O    -1.786000000     7.451000000     2.314000000
H    -1.604000000     8.108000000     2.986000000
H    -1.598000000     7.896000000     1.487000000
O    -5.266000000     2.250000000     4.639000000
H    -5.778000000     2.346000000     3.836000000
H    -4.378000000     2.061000000     4.337000000
O     0.595000000     0.373000000     7.272000000
H    -0.186000000     0.341000000     6.719000000
H     0.754000000    -0.539000000     7.515000000
O    -0.616000000     2.594000000     8.197000000
H    -1.219000000     2.072000000     8.726000000
H    -0.288000000     1.984000000     7.537000000
O    -7.538000000     2.269000000     2.408000000
H    -8.353000000     2.301000000     1.906000000
H    -7.696000000     1.607000000     3.080000000
O    -1.723000000     0.621000000     5.223000000
H    -2.293000000     0.607000000     4.454000000
H    -1.433000000     1.530000000     5.290000000
O    -1.551000000     3.254000000     5.213000000
H    -1.585000000     4.026000000     5.777000000
H    -1.044000000     3.536000000     4.451000000
O    -3.976000000     2.914000000     7.552000000
H    -3.319000000     2.220000000     7.606000000
H    -4.426000000     2.755000000     6.722000000
O    -5.258000000     5.544000000     6.907000000
H    -4.882000000     4.977000000     7.581000000
H    -4.849000000     5.251000000     6.092000000
O    -4.634000000     6.606000000     1.592000000
H    -4.602000000     5.676000000     1.371000000
H    -3.875000000     6.744000000     2.159000000
O    -3.834000000     5.008000000     4.265000000
H    -3.000000000     4.563000000     4.109000000
H    -4.467000000     4.521000000     3.737000000
O    -8.382000000     0.260000000     4.213000000
H    -8.006000000     0.303000000     5.092000000
H    -9.322000000     0.153000000     4.359000000
O    -6.142000000    -1.343000000     7.046000000
H    -6.416000000    -0.571000000     7.541000000
H    -5.707000000    -0.989000000     6.270000000
O     0.298000000     2.404000000     3.137000000
H     0.109000000     3.229000000     2.689000000
H    -0.231000000     1.754000000     2.675000000
O    -2.679000000     0.110000000     7.892000000
H    -2.908000000    -0.818000000     7.941000000
H    -2.472000000     0.257000000     6.969000000
O    -4.599000000    -0.471000000     5.184000000
H    -4.680000000     0.194000000     4.500000000
H    -3.773000000    -0.914000000     4.990000000
O    -1.530000000     4.661000000     2.789000000
H    -1.917000000     3.953000000     2.273000000
H    -1.832000000     5.462000000     2.360000000
O    -5.378000000     4.015000000     2.135000000
H    -4.837000000     3.307000000     1.786000000
H    -6.277000000     3.737000000     1.961000000
