215
-1464.18708
C    -4.776000000     1.385000000    -1.976000000
H    -4.986000000     0.318000000    -1.982000000
C    -3.767000000     1.888000000    -2.868000000
C    -3.618000000     3.237000000    -2.993000000
H    -2.830000000     3.654000000    -3.615000000
C    -2.749000000     0.936000000    -3.474000000
O    -3.238000000    -0.210000000    -4.251000000
H    -2.011000000     0.643000000    -2.713000000
O    -1.828000000     1.732000000    -4.330000000
C    -0.402000000     1.446000000    -4.304000000
C     0.413000000     2.353000000    -3.660000000
H     0.010000000     3.214000000    -3.135000000
C     1.762000000     2.096000000    -3.540000000
O     2.459000000     2.985000000    -2.728000000
C     2.265000000     1.012000000    -4.093000000
C     3.726000000     0.782000000    -3.972000000
H     4.081000000     0.160000000    -4.797000000
C     4.220000000     0.130000000    -2.681000000
C     4.249000000    -1.294000000    -2.603000000
H     3.976000000    -1.882000000    -3.475000000
H     4.245000000     1.725000000    -4.158000000
C     1.526000000     0.101000000    -4.826000000
H     2.109000000    -0.706000000    -5.262000000
C     0.119000000     0.342000000    -4.963000000
C    -0.691000000    -0.785000000    -5.630000000
H    -0.018000000    -1.386000000    -6.245000000
H    -1.522000000    -0.310000000    -6.156000000
C    -1.286000000    -1.608000000    -4.509000000
C    -0.580000000    -2.687000000    -4.052000000
H     0.371000000    -2.975000000    -4.493000000
C    -2.568000000    -1.401000000    -3.939000000
C    -3.044000000    -2.159000000    -2.883000000
H    -4.026000000    -1.956000000    -2.464000000
C    -2.349000000    -3.270000000    -2.465000000
O    -2.783000000    -3.776000000    -1.220000000
C    -2.023000000    -3.502000000    -0.089000000
C    -2.889000000    -3.083000000     1.171000000
C    -2.283000000    -3.064000000     2.495000000
H    -1.271000000    -3.437000000     2.626000000
C    -4.185000000    -2.627000000     1.007000000
H    -4.629000000    -2.559000000     0.017000000
O    -1.164000000    -4.588000000     0.160000000
H    -1.428000000    -2.614000000    -0.349000000
C    -1.076000000    -3.483000000    -3.002000000
C    -0.380000000    -4.765000000    -2.641000000
H     0.123000000    -5.222000000    -3.496000000
H    -1.018000000    -5.635000000    -2.474000000
C     0.605000000    -4.519000000    -1.552000000
C     1.909000000    -4.142000000    -1.897000000
H     2.118000000    -4.106000000    -2.964000000
C     0.171000000    -4.398000000    -0.207000000
C     1.081000000    -4.044000000     0.776000000
H     0.843000000    -4.120000000     1.834000000
C     2.369000000    -3.711000000     0.374000000
O     3.144000000    -3.323000000     1.370000000
C     3.487000000    -1.989000000     1.602000000
C     3.357000000    -1.651000000     3.113000000
C     2.943000000    -2.622000000     4.029000000
H     2.683000000    -3.633000000     3.723000000
C     3.760000000    -0.429000000     3.585000000
H     4.127000000     0.311000000     2.879000000
O     4.809000000    -1.674000000     1.033000000
H     2.680000000    -1.423000000     1.113000000
C     2.790000000    -3.657000000    -0.971000000
C     4.213000000    -3.375000000    -1.287000000
H     4.433000000    -3.925000000    -2.205000000
H     4.894000000    -3.857000000    -0.583000000
C     4.463000000    -1.890000000    -1.378000000
C     4.695000000    -1.097000000    -0.223000000
C     4.671000000     0.273000000    -0.283000000
H     4.714000000     0.969000000     0.550000000
C     4.435000000     0.883000000    -1.531000000
O     4.207000000     2.221000000    -1.465000000
C     2.883000000     2.528000000    -1.451000000
H     2.272000000     1.635000000    -1.249000000
C     2.587000000     3.513000000    -0.338000000
C     1.301000000     4.116000000    -0.358000000
H     0.527000000     3.766000000    -1.037000000
C     3.497000000     3.851000000     0.649000000
H     4.427000000     3.296000000     0.737000000
C     3.098000000     4.813000000     1.557000000
O     3.951000000     5.120000000     2.544000000
C     1.911000000     5.483000000     1.465000000
H     1.641000000     6.190000000     2.246000000
C     1.008000000     5.181000000     0.449000000
O    -0.215000000     5.752000000     0.475000000
C    -0.867000000     6.011000000    -0.681000000
C    -2.198000000     5.695000000    -0.791000000
H    -2.792000000     5.515000000     0.101000000
C    -0.108000000     6.411000000    -1.771000000
H     0.947000000     6.655000000    -1.679000000
C    -0.703000000     6.525000000    -3.009000000
H    -0.175000000     7.020000000    -3.821000000
C    -2.085000000     6.341000000    -3.108000000
H    -2.519000000     6.474000000    -4.095000000
C    -2.779000000     5.795000000    -2.045000000
O    -4.126000000     5.475000000    -2.236000000
C    -4.405000000     4.124000000    -2.223000000
C    -5.429000000     3.652000000    -1.444000000
H    -6.197000000     4.279000000    -0.997000000
C    -5.650000000     2.286000000    -1.356000000
O    -6.879000000     1.898000000    -0.777000000
C    -7.159000000     0.604000000    -0.502000000
C    -6.605000000     0.044000000     0.674000000
H    -6.196000000     0.741000000     1.401000000
C    -7.727000000    -0.207000000    -1.472000000
H    -7.996000000     0.244000000    -2.424000000
C    -7.742000000    -1.585000000    -1.287000000
H    -8.164000000    -2.252000000    -2.034000000
C    -7.254000000    -2.128000000    -0.120000000
H    -7.330000000    -3.198000000     0.055000000
C    -6.709000000    -1.303000000     0.883000000
O    -6.244000000    -1.902000000     2.010000000
C    -4.933000000    -2.184000000     2.111000000
C    -4.432000000    -2.443000000     3.374000000
H    -5.043000000    -2.084000000     4.198000000
C    -3.091000000    -2.670000000     3.570000000
O    -2.572000000    -2.666000000     4.841000000
C    -1.503000000    -3.472000000     5.220000000
C    -0.235000000    -2.907000000     5.275000000
H    -0.134000000    -1.907000000     4.862000000
C    -1.736000000    -4.669000000     5.825000000
H    -2.745000000    -5.042000000     5.669000000
C    -0.811000000    -5.381000000     6.578000000
H    -1.074000000    -6.290000000     7.113000000
C     0.466000000    -4.718000000     6.752000000
H     1.221000000    -5.167000000     7.392000000
C     0.732000000    -3.523000000     6.063000000
O     1.961000000    -2.945000000     6.275000000
C     2.668000000    -2.166000000     5.347000000
C     3.056000000    -0.947000000     5.814000000
H     2.924000000    -0.566000000     6.824000000
C     3.626000000    -0.013000000     4.926000000
O     3.945000000     1.221000000     5.381000000
C     4.678000000     2.188000000     4.629000000
C     6.072000000     2.239000000     4.602000000
H     6.709000000     1.554000000     5.155000000
C     6.777000000     3.219000000     3.864000000
H     7.856000000     3.322000000     3.787000000
C     6.000000000     4.138000000     3.200000000
H     6.517000000     4.892000000     2.613000000
C     4.608000000     4.105000000     3.230000000
C     3.987000000     3.122000000     3.971000000
H     2.916000000     3.123000000     4.160000000
C    -1.950000000     1.643000000     0.797000000
H    -2.656000000     2.468000000     0.753000000
C    -1.025000000     1.439000000    -0.234000000
H    -1.044000000     2.096000000    -1.100000000
C    -0.121000000     0.379000000    -0.109000000
H     0.560000000     0.278000000    -0.949000000
C    -0.161000000    -0.364000000     1.079000000
H     0.529000000    -1.201000000     1.151000000
C    -1.078000000    -0.085000000     2.091000000
H    -1.145000000    -0.746000000     2.952000000
C    -2.052000000     0.885000000     1.926000000
C    -3.093000000     1.149000000     3.010000000
O    -3.016000000     0.658000000     4.110000000
O    -4.066000000     1.887000000     2.709000000
O    -7.211000000     2.862000000     6.840000000
H    -6.413000000     2.987000000     6.326000000
H    -7.755000000     2.286000000     6.304000000
O    -3.357000000     6.785000000     2.450000000
H    -2.944000000     7.249000000     3.178000000
H    -3.010000000     5.894000000     2.506000000
O    -8.750000000    -2.515000000     3.169000000
H    -7.846000000    -2.461000000     2.861000000
H    -8.981000000    -1.612000000     3.391000000
O    -0.967000000     5.504000000     5.095000000
H    -1.237000000     5.469000000     6.013000000
H    -1.228000000     6.377000000     4.802000000
O    -4.856000000     2.533000000     5.143000000
H    -4.582000000     2.182000000     4.296000000
H    -4.779000000     1.792000000     5.745000000
O     0.411000000     3.231000000     8.140000000
H    -0.490000000     3.001000000     8.367000000
H     0.393000000     3.362000000     7.192000000
O    -0.650000000     0.458000000     5.505000000
H    -1.453000000     0.708000000     5.047000000
H    -0.140000000     1.266000000     5.553000000
O     0.696000000     3.437000000     5.392000000
H     0.463000000     4.364000000     5.445000000
H     0.403000000     3.166000000     4.521000000
O    -2.190000000     2.414000000     8.371000000
H    -2.083000000     1.502000000     8.101000000
H    -3.113000000     2.607000000     8.205000000
O    -5.949000000     5.220000000     7.481000000
H    -6.728000000     4.674000000     7.588000000
H    -5.866000000     5.335000000     6.534000000
O    -5.949000000     6.444000000     1.608000000
H    -5.908000000     5.523000000     1.867000000
H    -5.040000000     6.744000000     1.644000000
O    -5.369000000     5.385000000     4.808000000
H    -5.172000000     4.449000000     4.769000000
H    -4.766000000     5.783000000     4.181000000
O    -9.276000000     0.125000000     3.867000000
H    -9.128000000     1.069000000     3.928000000
H   -10.227000000     0.035000000     3.811000000
O    -6.971000000    -0.877000000     5.767000000
H    -7.057000000    -0.197000000     5.099000000
H    -6.098000000    -0.743000000     6.136000000
O     0.084000000     2.908000000     2.880000000
H    -0.198000000     3.458000000     2.149000000
H    -0.038000000     2.012000000     2.566000000
O    -1.877000000    -0.197000000     7.743000000
H    -1.918000000    -1.110000000     8.028000000
H    -1.122000000    -0.164000000     7.155000000
O    -4.403000000    -0.203000000     6.164000000
H    -3.886000000     0.182000000     5.456000000
H    -3.790000000    -0.775000000     6.625000000
O    -2.424000000     4.236000000     2.989000000
H    -2.875000000     3.396000000     2.901000000
H    -2.062000000     4.222000000     3.874000000
O    -5.990000000     3.749000000     2.137000000
H    -5.302000000     3.088000000     2.219000000
H    -6.748000000     3.266000000     1.807000000
