215
-1465.17969
C    -4.685000000     0.139000000    -3.613000000
H    -4.709000000    -0.930000000    -3.804000000
C    -3.489000000     0.881000000    -3.662000000
C    -3.523000000     2.224000000    -3.278000000
H    -2.597000000     2.789000000    -3.356000000
C    -2.155000000     0.271000000    -3.865000000
O    -2.294000000    -1.055000000    -4.462000000
H    -1.704000000     0.195000000    -2.865000000
O    -1.303000000     1.132000000    -4.681000000
C     0.109000000     1.068000000    -4.485000000
C     0.692000000     2.146000000    -3.821000000
H     0.079000000     3.020000000    -3.618000000
C     2.039000000     2.129000000    -3.449000000
O     2.534000000     3.226000000    -2.780000000
C     2.888000000     1.139000000    -3.964000000
C     4.402000000     1.100000000    -3.608000000
H     5.001000000     0.516000000    -4.310000000
C     4.559000000     0.638000000    -2.161000000
C     4.751000000    -0.745000000    -1.908000000
H     4.746000000    -1.387000000    -2.785000000
H     4.884000000     2.080000000    -3.608000000
C     2.303000000     0.065000000    -4.648000000
H     2.887000000    -0.789000000    -4.980000000
C     0.915000000    -0.016000000    -4.893000000
C     0.329000000    -1.278000000    -5.398000000
H     1.224000000    -1.774000000    -5.779000000
H    -0.360000000    -1.008000000    -6.201000000
C    -0.239000000    -2.178000000    -4.284000000
C     0.493000000    -3.182000000    -3.743000000
H     1.522000000    -3.324000000    -4.065000000
C    -1.605000000    -2.076000000    -3.864000000
C    -2.127000000    -2.805000000    -2.850000000
H    -3.150000000    -2.617000000    -2.535000000
C    -1.318000000    -3.715000000    -2.115000000
O    -1.666000000    -4.291000000    -0.937000000
C    -1.291000000    -3.820000000     0.317000000
C    -2.436000000    -3.677000000     1.300000000
C    -2.264000000    -3.874000000     2.629000000
H    -1.396000000    -4.334000000     3.093000000
C    -3.635000000    -3.094000000     0.844000000
H    -3.745000000    -2.833000000    -0.206000000
O    -0.339000000    -4.788000000     0.742000000
H    -0.768000000    -2.854000000     0.272000000
C    -0.006000000    -3.902000000    -2.610000000
C     0.856000000    -5.026000000    -2.008000000
H     1.424000000    -5.552000000    -2.778000000
H     0.156000000    -5.798000000    -1.683000000
C     1.604000000    -4.519000000    -0.832000000
C     2.873000000    -3.995000000    -0.995000000
H     3.329000000    -4.073000000    -1.979000000
C     1.012000000    -4.549000000     0.423000000
C     1.771000000    -4.014000000     1.476000000
H     1.360000000    -4.008000000     2.482000000
C     2.984000000    -3.335000000     1.324000000
O     3.490000000    -2.639000000     2.388000000
C     3.356000000    -1.214000000     2.266000000
C     2.804000000    -0.564000000     3.495000000
C     2.135000000    -1.359000000     4.407000000
H     1.738000000    -2.342000000     4.165000000
C     3.248000000     0.711000000     3.889000000
H     3.840000000     1.330000000     3.220000000
O     4.583000000    -0.678000000     1.774000000
H     2.631000000    -0.921000000     1.493000000
C     3.532000000    -3.337000000     0.060000000
C     4.873000000    -2.629000000    -0.239000000
H     5.352000000    -3.197000000    -1.039000000
H     5.669000000    -2.728000000     0.501000000
C     4.764000000    -1.203000000    -0.548000000
C     4.625000000    -0.285000000     0.470000000
C     4.461000000     1.069000000     0.257000000
H     4.408000000     1.739000000     1.111000000
C     4.427000000     1.512000000    -1.069000000
O     4.013000000     2.840000000    -1.124000000
C     2.582000000     3.035000000    -1.394000000
H     2.110000000     2.061000000    -1.200000000
C     1.970000000     4.175000000    -0.596000000
C     0.734000000     4.780000000    -0.904000000
H     0.179000000     4.458000000    -1.782000000
C     2.575000000     4.613000000     0.623000000
H     3.566000000     4.233000000     0.857000000
C     1.849000000     5.473000000     1.538000000
O     2.437000000     6.076000000     2.626000000
C     0.622000000     5.946000000     1.138000000
H     0.103000000     6.655000000     1.778000000
C     0.067000000     5.664000000    -0.066000000
O    -1.175000000     6.024000000    -0.314000000
C    -1.885000000     5.922000000    -1.475000000
C    -3.053000000     5.214000000    -1.435000000
H    -3.373000000     4.774000000    -0.494000000
C    -1.409000000     6.428000000    -2.677000000
H    -0.449000000     6.936000000    -2.635000000
C    -2.161000000     6.390000000    -3.857000000
H    -1.867000000     6.923000000    -4.758000000
C    -3.326000000     5.650000000    -3.808000000
H    -3.954000000     5.533000000    -4.688000000
C    -3.731000000     4.988000000    -2.564000000
O    -4.828000000     4.140000000    -2.553000000
C    -4.712000000     2.812000000    -2.857000000
C    -5.855000000     2.014000000    -2.611000000
H    -6.700000000     2.407000000    -2.051000000
C    -5.789000000     0.721000000    -3.023000000
O    -6.836000000    -0.060000000    -2.860000000
C    -6.861000000    -1.134000000    -1.989000000
C    -6.358000000    -1.169000000    -0.651000000
H    -5.868000000    -0.305000000    -0.210000000
C    -7.107000000    -2.352000000    -2.626000000
H    -7.416000000    -2.378000000    -3.668000000
C    -7.126000000    -3.548000000    -1.899000000
H    -7.353000000    -4.492000000    -2.388000000
C    -6.756000000    -3.528000000    -0.534000000
H    -6.671000000    -4.446000000     0.042000000
C    -6.341000000    -2.345000000     0.050000000
O    -5.897000000    -2.371000000     1.342000000
C    -4.635000000    -2.725000000     1.753000000
C    -4.517000000    -3.056000000     3.065000000
H    -5.331000000    -2.784000000     3.732000000
C    -3.280000000    -3.511000000     3.519000000
O    -3.056000000    -3.653000000     4.914000000
C    -1.814000000    -3.696000000     5.535000000
C    -1.043000000    -2.556000000     5.631000000
H    -1.396000000    -1.546000000     5.442000000
C    -1.413000000    -4.899000000     6.048000000
H    -2.145000000    -5.687000000     6.203000000
C    -0.094000000    -5.082000000     6.432000000
H     0.218000000    -5.988000000     6.947000000
C     0.705000000    -4.001000000     6.565000000
H     1.628000000    -4.029000000     7.139000000
C     0.225000000    -2.702000000     6.298000000
O     1.030000000    -1.566000000     6.536000000
C     1.688000000    -0.781000000     5.619000000
C     2.196000000     0.491000000     6.040000000
H     1.984000000     0.844000000     7.046000000
C     2.957000000     1.233000000     5.100000000
O     3.360000000     2.453000000     5.530000000
C     3.782000000     3.529000000     4.794000000
C     5.056000000     3.994000000     5.074000000
H     5.769000000     3.494000000     5.724000000
C     5.435000000     5.194000000     4.459000000
H     6.454000000     5.556000000     4.561000000
C     4.523000000     5.923000000     3.692000000
H     4.908000000     6.810000000     3.196000000
C     3.210000000     5.381000000     3.454000000
C     2.875000000     4.102000000     3.898000000
H     1.897000000     3.670000000     3.704000000
C    -2.552000000     0.535000000     0.343000000
H    -3.014000000     1.052000000    -0.495000000
C    -1.300000000     0.004000000     0.002000000
H    -0.961000000     0.106000000    -1.025000000
C    -0.494000000    -0.507000000     1.034000000
H     0.502000000    -0.867000000     0.817000000
C    -0.981000000    -0.564000000     2.345000000
H    -0.367000000    -0.870000000     3.189000000
C    -2.257000000    -0.091000000     2.670000000
H    -2.580000000    -0.190000000     3.703000000
C    -3.100000000     0.454000000     1.650000000
C    -4.451000000     1.059000000     2.009000000
O    -4.960000000     1.117000000     3.124000000
O    -5.047000000     1.727000000     1.186000000
O    -5.957000000     2.504000000     6.147000000
H    -6.870000000     2.657000000     6.389000000
H    -5.882000000     2.856000000     5.260000000
O    -7.776000000     0.925000000     3.774000000
H    -6.836000000     0.805000000     3.636000000
H    -8.080000000     1.367000000     2.981000000
O    -6.772000000     6.365000000     2.756000000
H    -7.510000000     6.274000000     2.153000000
H    -7.177000000     6.559000000     3.601000000
O    -0.712000000     1.977000000     5.627000000
H    -0.813000000     1.418000000     6.397000000
H    -0.433000000     1.380000000     4.932000000
O    -0.518000000     3.361000000     2.939000000
H    -1.356000000     3.693000000     2.616000000
H    -0.678000000     3.162000000     3.861000000
O    -2.510000000     5.105000000     4.706000000
H    -1.843000000     5.756000000     4.925000000
H    -2.720000000     4.687000000     5.541000000
O    -7.966000000     1.694000000     0.962000000
H    -7.019000000     1.810000000     0.894000000
H    -8.318000000     2.584000000     0.949000000
O    -8.723000000    -0.455000000     5.849000000
H    -7.883000000    -0.502000000     6.304000000
H    -8.537000000     0.043000000     5.053000000
O    -9.665000000    -2.641000000     2.295000000
H    -9.231000000    -2.193000000     1.569000000
H   -10.143000000    -1.949000000     2.752000000
O    -2.642000000     6.722000000     2.418000000
H    -2.952000000     6.341000000     3.239000000
H    -2.683000000     6.002000000     1.788000000
O    -9.403000000    -0.900000000     0.240000000
H    -9.812000000    -0.664000000    -0.593000000
H    -8.973000000    -0.096000000     0.532000000
O    -9.052000000     3.857000000     3.708000000
H    -8.156000000     3.526000000     3.769000000
H    -9.055000000     4.399000000     2.920000000
O    -6.292000000     3.389000000     3.585000000
H    -5.912000000     4.114000000     3.088000000
H    -5.851000000     2.610000000     3.246000000
O    -8.476000000     4.609000000     1.201000000
H    -7.565000000     4.464000000     0.945000000
H    -8.711000000     5.441000000     0.789000000
O    -5.075000000    -1.196000000     7.862000000
H    -5.045000000    -1.139000000     6.907000000
H    -4.735000000    -2.069000000     8.060000000
O     1.119000000     1.932000000     1.311000000
H     0.381000000     1.343000000     1.467000000
H     0.832000000     2.774000000     1.666000000
O    -5.343000000    -0.246000000     5.353000000
H    -5.103000000     0.088000000     4.488000000
H    -5.340000000     0.528000000     5.917000000
O    -3.282000000     3.870000000     2.117000000
H    -3.942000000     3.382000000     1.626000000
H    -3.448000000     3.645000000     3.033000000
O    -6.275000000     3.972000000     0.123000000
H    -6.357000000     3.997000000    -0.830000000
H    -5.760000000     3.184000000     0.299000000
