215
-1461.96628
C    -3.579000000     0.570000000    -3.070000000
H    -3.463000000    -0.510000000    -3.126000000
C    -2.432000000     1.335000000    -3.455000000
C    -2.453000000     2.730000000    -3.320000000
H    -1.575000000     3.338000000    -3.521000000
C    -1.119000000     0.730000000    -3.759000000
O    -1.206000000    -0.475000000    -4.564000000
H    -0.613000000     0.393000000    -2.843000000
O    -0.194000000     1.597000000    -4.428000000
C     1.204000000     1.658000000    -4.108000000
C     1.617000000     2.695000000    -3.331000000
H     0.925000000     3.441000000    -2.949000000
C     2.858000000     2.657000000    -2.758000000
O     3.112000000     3.663000000    -1.855000000
C     3.701000000     1.549000000    -2.888000000
C     5.034000000     1.459000000    -2.155000000
H     5.821000000     0.960000000    -2.725000000
C     4.775000000     0.888000000    -0.791000000
C     4.971000000    -0.516000000    -0.579000000
H     5.298000000    -1.154000000    -1.397000000
H     5.294000000     2.520000000    -2.150000000
C     3.299000000     0.453000000    -3.634000000
H     3.942000000    -0.400000000    -3.836000000
C     2.000000000     0.462000000    -4.261000000
C     1.653000000    -0.677000000    -5.167000000
H     2.513000000    -1.178000000    -5.618000000
H     1.114000000    -0.258000000    -6.019000000
C     0.792000000    -1.745000000    -4.400000000
C     1.420000000    -2.874000000    -3.896000000
H     2.454000000    -3.117000000    -4.129000000
C    -0.569000000    -1.590000000    -4.192000000
C    -1.303000000    -2.503000000    -3.411000000
H    -2.361000000    -2.460000000    -3.167000000
C    -0.638000000    -3.618000000    -2.895000000
O    -1.281000000    -4.574000000    -2.070000000
C    -1.215000000    -4.287000000    -0.682000000
C    -2.671000000    -4.265000000    -0.118000000
C    -2.848000000    -4.269000000     1.263000000
H    -1.995000000    -4.149000000     1.926000000
C    -3.785000000    -4.142000000    -0.939000000
H    -3.707000000    -4.166000000    -2.023000000
O    -0.308000000    -5.108000000     0.008000000
H    -0.896000000    -3.239000000    -0.584000000
C     0.689000000    -3.784000000    -3.158000000
C     1.398000000    -4.803000000    -2.278000000
H     2.350000000    -5.054000000    -2.751000000
H     0.944000000    -5.790000000    -2.157000000
C     1.758000000    -4.327000000    -0.896000000
C     3.001000000    -3.809000000    -0.685000000
H     3.623000000    -3.617000000    -1.555000000
C     0.923000000    -4.593000000     0.200000000
C     1.400000000    -4.212000000     1.478000000
H     0.798000000    -4.374000000     2.369000000
C     2.608000000    -3.557000000     1.678000000
O     2.764000000    -2.950000000     2.904000000
C     2.608000000    -1.525000000     3.031000000
C     1.815000000    -1.033000000     4.230000000
C     0.630000000    -1.608000000     4.524000000
H     0.349000000    -2.450000000     3.896000000
C     2.181000000     0.104000000     4.900000000
H     3.155000000     0.550000000     4.716000000
O     3.891000000    -0.903000000     2.878000000
H     2.034000000    -1.163000000     2.165000000
C     3.424000000    -3.325000000     0.550000000
C     4.747000000    -2.642000000     0.677000000
H     5.460000000    -3.054000000    -0.041000000
H     5.157000000    -3.006000000     1.621000000
C     4.629000000    -1.138000000     0.609000000
C     4.257000000    -0.325000000     1.684000000
C     4.166000000     1.097000000     1.524000000
H     3.768000000     1.750000000     2.296000000
C     4.379000000     1.655000000     0.269000000
O     4.191000000     2.978000000     0.116000000
C     2.923000000     3.380000000    -0.478000000
H     2.216000000     2.539000000    -0.424000000
C     2.208000000     4.528000000     0.287000000
C     1.254000000     5.285000000    -0.332000000
H     1.031000000     5.160000000    -1.389000000
C     2.406000000     4.661000000     1.703000000
H     3.084000000     3.987000000     2.221000000
C     1.550000000     5.514000000     2.381000000
O     1.408000000     5.471000000     3.761000000
C     0.683000000     6.357000000     1.647000000
H     0.082000000     7.065000000     2.211000000
C     0.580000000     6.245000000     0.259000000
O    -0.252000000     7.088000000    -0.468000000
C    -0.887000000     6.752000000    -1.613000000
C    -1.859000000     5.751000000    -1.523000000
H    -2.064000000     5.235000000    -0.589000000
C    -0.515000000     7.255000000    -2.808000000
H     0.317000000     7.953000000    -2.863000000
C    -1.186000000     6.826000000    -3.994000000
H    -0.833000000     7.144000000    -4.971000000
C    -2.314000000     6.001000000    -3.873000000
H    -2.962000000     5.692000000    -4.690000000
C    -2.686000000     5.530000000    -2.625000000
O    -3.745000000     4.670000000    -2.474000000
C    -3.623000000     3.347000000    -2.788000000
C    -4.769000000     2.613000000    -2.595000000
H    -5.730000000     2.982000000    -2.246000000
C    -4.734000000     1.213000000    -2.747000000
O    -5.761000000     0.457000000    -2.342000000
C    -6.086000000    -0.811000000    -2.760000000
C    -5.862000000    -1.808000000    -1.764000000
H    -5.454000000    -1.530000000    -0.795000000
C    -6.648000000    -1.138000000    -3.976000000
H    -6.787000000    -0.361000000    -4.724000000
C    -7.138000000    -2.435000000    -4.273000000
H    -7.634000000    -2.659000000    -5.214000000
C    -6.922000000    -3.417000000    -3.300000000
H    -7.383000000    -4.394000000    -3.417000000
C    -6.303000000    -3.130000000    -2.069000000
O    -6.243000000    -4.151000000    -1.151000000
C    -5.104000000    -4.178000000    -0.344000000
C    -5.287000000    -4.226000000     1.045000000
H    -6.287000000    -4.339000000     1.456000000
C    -4.131000000    -4.197000000     1.824000000
O    -4.258000000    -4.060000000     3.163000000
C    -3.177000000    -4.216000000     4.007000000
C    -2.630000000    -3.095000000     4.598000000
H    -3.127000000    -2.140000000     4.449000000
C    -2.527000000    -5.445000000     4.136000000
H    -2.910000000    -6.310000000     3.601000000
C    -1.440000000    -5.479000000     5.029000000
H    -0.934000000    -6.430000000     5.179000000
C    -0.965000000    -4.383000000     5.737000000
H    -0.173000000    -4.479000000     6.476000000
C    -1.522000000    -3.161000000     5.462000000
O    -1.160000000    -2.043000000     6.134000000
C    -0.125000000    -1.232000000     5.641000000
C     0.383000000    -0.216000000     6.429000000
H    -0.084000000     0.095000000     7.359000000
C     1.484000000     0.568000000     5.991000000
O     1.863000000     1.720000000     6.649000000
C     2.490000000     2.756000000     5.938000000
C     3.742000000     3.105000000     6.398000000
H     4.239000000     2.560000000     7.196000000
C     4.256000000     4.307000000     5.890000000
H     5.266000000     4.622000000     6.137000000
C     3.471000000     5.000000000     4.989000000
H     3.998000000     5.793000000     4.464000000
C     2.194000000     4.710000000     4.623000000
C     1.719000000     3.503000000     5.096000000
H     0.708000000     3.177000000     4.864000000
C    -2.191000000     1.813000000     0.024000000
H    -2.667000000     2.779000000    -0.126000000
C    -0.905000000     1.623000000    -0.498000000
H    -0.514000000     2.441000000    -1.099000000
C    -0.225000000     0.497000000    -0.159000000
H     0.715000000     0.380000000    -0.472000000
C    -0.910000000    -0.496000000     0.549000000
H    -0.396000000    -1.431000000     0.757000000
C    -2.284000000    -0.433000000     0.787000000
H    -2.866000000    -1.238000000     1.228000000
C    -2.880000000     0.797000000     0.644000000
C    -4.329000000     1.002000000     1.137000000
O    -4.871000000     0.123000000     1.837000000
O    -4.861000000     2.062000000     0.911000000
O    -9.901000000     3.721000000     2.331000000
H    -9.026000000     3.492000000     2.019000000
H   -10.094000000     4.559000000     1.910000000
O    -9.432000000     2.594000000    -1.964000000
H    -9.059000000     3.167000000    -2.633000000
H    -8.864000000     2.713000000    -1.203000000
O    -9.918000000    -0.823000000     2.941000000
H    -9.100000000    -0.782000000     2.446000000
H    -9.878000000    -0.072000000     3.533000000
O    -5.531000000     4.645000000     2.992000000
H    -5.662000000     4.952000000     3.888000000
H    -5.839000000     3.738000000     3.002000000
O    -6.379000000     2.124000000     3.221000000
H    -5.821000000     1.747000000     2.539000000
H    -7.147000000     1.553000000     3.244000000
O    -4.005000000     2.361000000     5.007000000
H    -3.667000000     3.072000000     4.462000000
H    -4.879000000     2.186000000     4.658000000
O    -3.279000000     1.123000000     7.252000000
H    -3.312000000     1.447000000     6.352000000
H    -3.948000000     0.440000000     7.286000000
O    -7.492000000     2.731000000    -0.150000000
H    -6.577000000     2.450000000    -0.129000000
H    -7.464000000     3.657000000     0.093000000
O    -4.794000000     7.118000000     0.605000000
H    -4.725000000     7.400000000    -0.307000000
H    -4.252000000     6.330000000     0.653000000
O    -6.469000000     5.640000000    -1.575000000
H    -5.827000000     6.344000000    -1.664000000
H    -6.284000000     5.254000000    -0.719000000
O    -7.590000000     5.193000000     1.205000000
H    -7.925000000     6.051000000     0.942000000
H    -6.931000000     5.387000000     1.871000000
O    -9.228000000     1.690000000     3.938000000
H    -9.119000000     1.776000000     4.885000000
H    -9.564000000     2.541000000     3.657000000
O    -7.415000000    -0.093000000     0.569000000
H    -6.494000000    -0.148000000     0.822000000
H    -7.626000000     0.838000000     0.635000000
O    -3.212000000     6.273000000     3.766000000
H    -2.687000000     5.481000000     3.876000000
H    -3.999000000     5.976000000     3.308000000
O    -8.021000000    -2.538000000     1.148000000
H    -7.346000000    -2.595000000     1.824000000
H    -7.897000000    -1.673000000     0.758000000
O    -0.401000000     2.455000000     2.325000000
H    -0.680000000     1.683000000     2.818000000
H    -0.425000000     2.176000000     1.410000000
O    -6.236000000    -1.903000000     3.451000000
H    -5.741000000    -1.240000000     2.970000000
H    -5.596000000    -2.589000000     3.643000000
O    -1.786000000     3.916000000     4.275000000
H    -1.210000000     3.635000000     3.565000000
H    -1.418000000     3.506000000     5.058000000
O    -4.014000000     4.595000000     0.787000000
H    -4.412000000     4.734000000     1.647000000
H    -3.881000000     3.649000000     0.734000000
