215
-1473.52818
C    -3.883000000     0.537000000    -3.579000000
H    -3.875000000    -0.540000000    -3.729000000
C    -2.702000000     1.309000000    -3.653000000
C    -2.823000000     2.666000000    -3.291000000
H    -1.938000000     3.297000000    -3.319000000
C    -1.346000000     0.658000000    -3.946000000
O    -1.403000000    -0.492000000    -4.810000000
H    -0.852000000     0.391000000    -3.000000000
O    -0.506000000     1.648000000    -4.596000000
C     0.847000000     1.691000000    -4.084000000
C     1.196000000     2.864000000    -3.361000000
H     0.417000000     3.604000000    -3.195000000
C     2.466000000     2.922000000    -2.813000000
O     2.618000000     3.882000000    -1.865000000
C     3.374000000     1.901000000    -2.990000000
C     4.784000000     2.006000000    -2.425000000
H     5.452000000     1.444000000    -3.081000000
C     4.717000000     1.366000000    -1.076000000
C     4.902000000    -0.003000000    -0.956000000
H     4.977000000    -0.559000000    -1.887000000
H     5.198000000     3.016000000    -2.420000000
C     3.068000000     0.772000000    -3.844000000
H     3.868000000     0.050000000    -3.987000000
C     1.772000000     0.647000000    -4.407000000
C     1.449000000    -0.553000000    -5.251000000
H     2.341000000    -1.103000000    -5.558000000
H     0.782000000    -0.357000000    -6.093000000
C     0.766000000    -1.619000000    -4.400000000
C     1.484000000    -2.719000000    -3.922000000
H     2.568000000    -2.714000000    -3.998000000
C    -0.652000000    -1.563000000    -4.268000000
C    -1.382000000    -2.578000000    -3.592000000
H    -2.454000000    -2.435000000    -3.487000000
C    -0.644000000    -3.570000000    -2.968000000
O    -1.333000000    -4.361000000    -2.037000000
C    -1.073000000    -3.967000000    -0.680000000
C    -2.362000000    -4.039000000     0.104000000
C    -2.431000000    -4.567000000     1.395000000
H    -1.618000000    -5.130000000     1.847000000
C    -3.550000000    -3.465000000    -0.360000000
H    -3.610000000    -3.083000000    -1.375000000
O    -0.136000000    -4.832000000    -0.101000000
H    -0.721000000    -2.925000000    -0.671000000
C     0.747000000    -3.698000000    -3.218000000
C     1.514000000    -4.817000000    -2.551000000
H     2.410000000    -5.044000000    -3.133000000
H     0.816000000    -5.657000000    -2.553000000
C     2.033000000    -4.284000000    -1.180000000
C     3.214000000    -3.555000000    -1.020000000
H     3.797000000    -3.551000000    -1.938000000
C     1.211000000    -4.342000000    -0.084000000
C     1.732000000    -3.923000000     1.167000000
H     1.066000000    -4.004000000     2.023000000
C     2.932000000    -3.233000000     1.309000000
O     3.270000000    -2.692000000     2.533000000
C     3.033000000    -1.346000000     2.803000000
C     2.408000000    -1.041000000     4.143000000
C     1.328000000    -1.847000000     4.472000000
H     1.111000000    -2.619000000     3.739000000
C     2.656000000     0.067000000     4.933000000
H     3.487000000     0.672000000     4.579000000
O     4.282000000    -0.694000000     2.670000000
H     2.324000000    -1.043000000     2.018000000
C     3.725000000    -3.027000000     0.160000000
C     5.055000000    -2.296000000     0.282000000
H     5.783000000    -2.653000000    -0.449000000
H     5.500000000    -2.680000000     1.202000000
C     4.866000000    -0.773000000     0.231000000
C     4.561000000    -0.011000000     1.429000000
C     4.264000000     1.300000000     1.310000000
H     3.897000000     1.925000000     2.120000000
C     4.390000000     1.952000000     0.084000000
O     3.985000000     3.273000000     0.002000000
C     2.573000000     3.423000000    -0.478000000
H     2.006000000     2.485000000    -0.571000000
C     1.795000000     4.384000000     0.315000000
C     0.779000000     5.130000000    -0.228000000
H     0.676000000     5.040000000    -1.306000000
C     1.987000000     4.435000000     1.676000000
H     2.684000000     3.742000000     2.141000000
C     1.187000000     5.261000000     2.493000000
O     1.306000000     5.197000000     3.869000000
C     0.115000000     5.970000000     1.919000000
H    -0.568000000     6.544000000     2.541000000
C    -0.074000000     5.863000000     0.566000000
O    -0.983000000     6.653000000    -0.033000000
C    -1.579000000     6.459000000    -1.250000000
C    -2.684000000     5.562000000    -1.344000000
H    -2.958000000     4.950000000    -0.488000000
C    -1.250000000     7.203000000    -2.396000000
H    -0.510000000     7.997000000    -2.343000000
C    -2.006000000     7.120000000    -3.575000000
H    -1.664000000     7.692000000    -4.433000000
C    -3.063000000     6.252000000    -3.622000000
H    -3.548000000     6.061000000    -4.575000000
C    -3.358000000     5.450000000    -2.554000000
O    -4.340000000     4.555000000    -2.691000000
C    -4.116000000     3.241000000    -3.135000000
C    -5.279000000     2.497000000    -3.238000000
H    -6.282000000     2.899000000    -3.118000000
C    -5.115000000     1.163000000    -3.483000000
O    -6.227000000     0.324000000    -3.551000000
C    -6.343000000    -0.952000000    -3.095000000
C    -6.043000000    -1.275000000    -1.767000000
H    -5.769000000    -0.569000000    -0.987000000
C    -6.692000000    -1.948000000    -4.060000000
H    -6.890000000    -1.719000000    -5.104000000
C    -6.708000000    -3.258000000    -3.628000000
H    -6.744000000    -4.086000000    -4.332000000
C    -6.385000000    -3.613000000    -2.297000000
H    -6.142000000    -4.646000000    -2.059000000
C    -6.156000000    -2.618000000    -1.361000000
O    -5.909000000    -2.943000000    -0.051000000
C    -4.717000000    -3.440000000     0.410000000
C    -4.715000000    -4.003000000     1.668000000
H    -5.609000000    -4.082000000     2.280000000
C    -3.585000000    -4.580000000     2.125000000
O    -3.549000000    -5.138000000     3.360000000
C    -2.488000000    -5.053000000     4.250000000
C    -1.856000000    -3.823000000     4.450000000
H    -2.200000000    -2.955000000     3.895000000
C    -2.072000000    -6.157000000     5.068000000
H    -2.572000000    -7.107000000     4.903000000
C    -1.084000000    -5.968000000     6.048000000
H    -0.768000000    -6.835000000     6.623000000
C    -0.514000000    -4.691000000     6.168000000
H     0.177000000    -4.537000000     6.992000000
C    -0.877000000    -3.590000000     5.375000000
O    -0.671000000    -2.276000000     5.785000000
C     0.502000000    -1.587000000     5.583000000
C     0.856000000    -0.455000000     6.356000000
H     0.175000000    -0.183000000     7.158000000
C     1.872000000     0.420000000     6.043000000
O     2.143000000     1.509000000     6.775000000
C     2.631000000     2.662000000     6.120000000
C     3.846000000     3.176000000     6.420000000
H     4.566000000     2.586000000     6.981000000
C     4.379000000     4.279000000     5.654000000
H     5.376000000     4.666000000     5.849000000
C     3.466000000     4.943000000     4.801000000
H     3.746000000     5.772000000     4.155000000
C     2.205000000     4.405000000     4.552000000
C     1.735000000     3.305000000     5.266000000
H     0.695000000     2.996000000     5.194000000
C    -1.815000000     1.438000000    -0.007000000
H    -2.493000000     2.217000000    -0.346000000
C    -0.542000000     1.276000000    -0.585000000
H    -0.240000000     2.041000000    -1.296000000
C     0.307000000     0.265000000    -0.179000000
H     1.214000000     0.272000000    -0.644000000
C    -0.087000000    -0.689000000     0.710000000
H     0.534000000    -1.487000000     1.110000000
C    -1.374000000    -0.618000000     1.232000000
H    -1.841000000    -1.396000000     1.830000000
C    -2.219000000     0.490000000     0.938000000
C    -3.638000000     0.543000000     1.400000000
O    -4.035000000    -0.375000000     2.025000000
O    -4.311000000     1.547000000     1.371000000
O    -8.851000000     3.365000000     3.657000000
H    -8.049000000     3.711000000     4.048000000
H    -8.623000000     3.210000000     2.741000000
O    -8.357000000     2.885000000    -0.700000000
H    -7.938000000     3.719000000    -0.913000000
H    -7.891000000     2.576000000     0.077000000
O    -9.896000000    -1.276000000     3.232000000
H    -9.302000000    -1.931000000     2.866000000
H    -9.318000000    -0.621000000     3.622000000
O    -8.737000000    -1.774000000    -0.021000000
H    -8.163000000    -1.157000000     0.432000000
H    -9.450000000    -1.233000000    -0.361000000
O    -6.732000000     5.073000000     4.483000000
H    -6.934000000     5.090000000     5.418000000
H    -5.880000000     5.504000000     4.414000000
O    -4.862000000     1.121000000     4.336000000
H    -4.705000000     1.137000000     3.392000000
H    -5.803000000     1.270000000     4.425000000
O    -2.152000000     1.360000000     5.089000000
H    -2.177000000     2.228000000     4.685000000
H    -3.052000000     1.041000000     5.026000000
O    -2.100000000     1.718000000     7.695000000
H    -2.875000000     1.346000000     8.116000000
H    -2.041000000     1.260000000     6.856000000
O    -6.594000000     2.963000000     1.687000000
H    -5.870000000     2.407000000     1.400000000
H    -6.218000000     3.842000000     1.731000000
O    -4.325000000     6.517000000     1.704000000
H    -5.250000000     6.499000000     1.950000000
H    -4.055000000     5.599000000     1.722000000
O    -4.719000000    -2.769000000     6.717000000
H    -5.514000000    -2.352000000     7.049000000
H    -4.661000000    -2.482000000     5.805000000
O    -8.110000000    -4.411000000     0.998000000
H    -7.185000000    -4.646000000     0.922000000
H    -8.150000000    -3.497000000     0.717000000
O    -7.983000000     0.681000000     4.271000000
H    -7.636000000     0.523000000     5.149000000
H    -8.438000000     1.520000000     4.340000000
O    -7.003000000     0.035000000     1.440000000
H    -6.122000000     0.360000000     1.258000000
H    -7.273000000     0.503000000     2.231000000
O    -7.197000000    -2.143000000     2.954000000
H    -6.516000000    -2.104000000     3.625000000
H    -6.794000000    -1.750000000     2.180000000
O    -0.268000000     1.512000000     3.107000000
H    -0.767000000     0.941000000     3.691000000
H    -0.425000000     1.156000000     2.232000000
O    -4.557000000    -1.612000000     4.391000000
H    -4.338000000    -1.536000000     3.463000000
H    -4.637000000    -0.708000000     4.694000000
O    -1.823000000     4.070000000     4.129000000
H    -1.080000000     3.727000000     3.633000000
H    -1.572000000     4.968000000     4.345000000
O    -3.670000000     4.030000000     1.924000000
H    -3.041000000     4.059000000     2.646000000
H    -3.939000000     3.112000000     1.878000000
