215
-1449.87410
C    -3.935000000     0.398000000    -2.859000000
H    -3.952000000    -0.589000000    -3.314000000
C    -2.842000000     1.290000000    -3.008000000
C    -3.026000000     2.665000000    -2.678000000
H    -2.183000000     3.313000000    -2.904000000
C    -1.522000000     0.810000000    -3.583000000
O    -1.708000000    -0.400000000    -4.412000000
H    -0.973000000     0.580000000    -2.658000000
O    -0.815000000     1.833000000    -4.329000000
C     0.542000000     1.802000000    -4.218000000
C     1.045000000     2.893000000    -3.483000000
H     0.376000000     3.676000000    -3.135000000
C     2.423000000     2.874000000    -3.163000000
O     2.853000000     3.830000000    -2.289000000
C     3.297000000     1.837000000    -3.500000000
C     4.691000000     1.670000000    -2.867000000
H     5.244000000     1.094000000    -3.612000000
C     4.680000000     1.048000000    -1.490000000
C     4.897000000    -0.279000000    -1.205000000
H     5.044000000    -0.891000000    -2.092000000
H     5.191000000     2.638000000    -2.796000000
C     2.766000000     0.800000000    -4.225000000
H     3.425000000    -0.055000000    -4.360000000
C     1.392000000     0.762000000    -4.623000000
C     0.950000000    -0.445000000    -5.432000000
H     1.830000000    -0.766000000    -5.993000000
H     0.186000000    -0.036000000    -6.097000000
C     0.417000000    -1.568000000    -4.519000000
C     1.215000000    -2.672000000    -4.141000000
H     2.238000000    -2.703000000    -4.509000000
C    -0.937000000    -1.461000000    -4.134000000
C    -1.417000000    -2.428000000    -3.295000000
H    -2.427000000    -2.338000000    -2.904000000
C    -0.600000000    -3.450000000    -2.781000000
O    -1.102000000    -4.379000000    -1.975000000
C    -1.004000000    -4.368000000    -0.522000000
C    -2.293000000    -4.760000000     0.161000000
C    -2.281000000    -4.917000000     1.546000000
H    -1.466000000    -4.939000000     2.265000000
C    -3.479000000    -4.670000000    -0.548000000
H    -3.494000000    -4.459000000    -1.614000000
O     0.092000000    -5.125000000    -0.117000000
H    -0.748000000    -3.404000000    -0.058000000
C     0.759000000    -3.608000000    -3.218000000
C     1.657000000    -4.747000000    -2.680000000
H     2.550000000    -4.922000000    -3.284000000
H     1.149000000    -5.713000000    -2.715000000
C     2.133000000    -4.387000000    -1.272000000
C     3.342000000    -3.709000000    -1.086000000
H     3.981000000    -3.454000000    -1.928000000
C     1.352000000    -4.553000000    -0.101000000
C     1.795000000    -4.170000000     1.173000000
H     1.151000000    -4.425000000     2.011000000
C     2.965000000    -3.433000000     1.295000000
O     3.192000000    -2.771000000     2.521000000
C     3.017000000    -1.292000000     2.636000000
C     2.401000000    -0.964000000     4.018000000
C     1.154000000    -1.517000000     4.334000000
H     0.800000000    -2.350000000     3.733000000
C     2.876000000     0.142000000     4.755000000
H     3.858000000     0.572000000     4.574000000
O     4.267000000    -0.557000000     2.357000000
H     2.373000000    -0.965000000     1.806000000
C     3.762000000    -3.167000000     0.181000000
C     5.143000000    -2.406000000     0.202000000
H     5.864000000    -2.845000000    -0.489000000
H     5.687000000    -2.536000000     1.140000000
C     4.876000000    -0.854000000     0.018000000
C     4.470000000    -0.037000000     1.052000000
C     4.310000000     1.333000000     0.877000000
H     4.060000000     1.975000000     1.717000000
C     4.405000000     1.882000000    -0.365000000
O     4.151000000     3.234000000    -0.466000000
C     2.749000000     3.487000000    -0.881000000
H     2.144000000     2.589000000    -0.691000000
C     2.156000000     4.588000000    -0.059000000
C     1.217000000     5.459000000    -0.616000000
H     0.971000000     5.314000000    -1.665000000
C     2.233000000     4.496000000     1.388000000
H     2.813000000     3.655000000     1.757000000
C     1.368000000     5.240000000     2.202000000
O     1.412000000     5.255000000     3.589000000
C     0.522000000     6.137000000     1.601000000
H    -0.169000000     6.725000000     2.201000000
C     0.376000000     6.251000000     0.219000000
O    -0.577000000     7.040000000    -0.344000000
C    -1.544000000     6.646000000    -1.233000000
C    -2.446000000     5.625000000    -0.936000000
H    -2.256000000     4.923000000    -0.128000000
C    -1.841000000     7.531000000    -2.257000000
H    -1.139000000     8.335000000    -2.461000000
C    -2.958000000     7.405000000    -3.079000000
H    -3.063000000     8.077000000    -3.927000000
C    -3.753000000     6.242000000    -2.926000000
H    -4.491000000     6.126000000    -3.716000000
C    -3.482000000     5.414000000    -1.843000000
O    -4.297000000     4.355000000    -1.618000000
C    -4.190000000     3.088000000    -2.086000000
C    -5.102000000     2.166000000    -1.698000000
H    -5.999000000     2.496000000    -1.179000000
C    -5.019000000     0.867000000    -2.204000000
O    -6.037000000     0.017000000    -1.893000000
C    -6.072000000    -1.314000000    -2.156000000
C    -5.926000000    -2.191000000    -1.100000000
H    -5.689000000    -1.707000000    -0.156000000
C    -6.432000000    -1.822000000    -3.366000000
H    -6.517000000    -1.123000000    -4.194000000
C    -6.696000000    -3.165000000    -3.523000000
H    -6.910000000    -3.569000000    -4.510000000
C    -6.522000000    -4.048000000    -2.519000000
H    -6.441000000    -5.119000000    -2.688000000
C    -6.060000000    -3.588000000    -1.270000000
O    -5.893000000    -4.518000000    -0.336000000
C    -4.624000000    -4.752000000     0.146000000
C    -4.646000000    -4.899000000     1.543000000
H    -5.550000000    -4.931000000     2.145000000
C    -3.490000000    -4.954000000     2.215000000
O    -3.620000000    -4.894000000     3.606000000
C    -2.689000000    -4.587000000     4.482000000
C    -2.335000000    -3.200000000     4.487000000
H    -2.896000000    -2.476000000     3.902000000
C    -2.028000000    -5.487000000     5.207000000
H    -2.236000000    -6.551000000     5.134000000
C    -0.971000000    -5.082000000     6.000000000
H    -0.341000000    -5.793000000     6.528000000
C    -0.532000000    -3.751000000     6.107000000
H     0.282000000    -3.483000000     6.774000000
C    -1.288000000    -2.801000000     5.389000000
O    -0.974000000    -1.496000000     5.556000000
C     0.331000000    -1.026000000     5.314000000
C     0.771000000     0.119000000     6.032000000
H     0.104000000     0.581000000     6.755000000
C     2.057000000     0.655000000     5.777000000
O     2.593000000     1.656000000     6.497000000
C     2.948000000     2.694000000     5.723000000
C     4.272000000     3.093000000     5.608000000
H     5.046000000     2.541000000     6.136000000
C     4.728000000     4.204000000     4.837000000
H     5.765000000     4.465000000     4.647000000
C     3.708000000     4.998000000     4.269000000
H     3.924000000     5.874000000     3.662000000
C     2.348000000     4.600000000     4.288000000
C     1.975000000     3.484000000     5.041000000
H     0.899000000     3.359000000     5.126000000
C    -1.684000000     1.981000000     0.380000000
H    -2.350000000     2.839000000     0.405000000
C    -0.614000000     2.021000000    -0.510000000
H    -0.466000000     2.913000000    -1.114000000
C     0.143000000     0.838000000    -0.655000000
H     1.040000000     0.900000000    -1.391000000
C    -0.091000000    -0.319000000     0.056000000
H     0.608000000    -1.151000000     0.067000000
C    -1.161000000    -0.363000000     0.998000000
H    -1.342000000    -1.339000000     1.440000000
C    -2.051000000     0.789000000     1.155000000
C    -3.250000000     0.744000000     2.111000000
O    -3.626000000    -0.310000000     2.661000000
O    -3.910000000     1.754000000     2.307000000
O    -9.193000000     4.078000000     0.790000000
H    -9.382000000     4.029000000     1.727000000
H    -8.362000000     3.615000000     0.688000000
O    -3.285000000    -2.308000000     8.166000000
H    -3.415000000    -2.331000000     7.218000000
H    -3.356000000    -1.382000000     8.396000000
O    -9.894000000     0.457000000     0.218000000
H    -8.990000000     0.461000000     0.531000000
H   -10.196000000     1.356000000     0.348000000
O    -8.781000000     2.865000000     3.368000000
H    -7.902000000     2.990000000     3.724000000
H    -9.365000000     3.039000000     4.106000000
O    -5.906000000     1.210000000     3.991000000
H    -5.195000000     1.284000000     3.353000000
H    -5.686000000     1.849000000     4.669000000
O    -3.949000000     2.988000000     5.190000000
H    -3.172000000     3.192000000     4.670000000
H    -4.437000000     3.811000000     5.225000000
O    -2.671000000     1.663000000     7.453000000
H    -3.229000000     1.059000000     7.943000000
H    -3.226000000     1.974000000     6.738000000
O    -6.277000000     2.834000000     1.252000000
H    -5.481000000     2.341000000     1.450000000
H    -5.972000000     3.727000000     1.090000000
O    -5.550000000     6.161000000     1.129000000
H    -6.124000000     6.127000000     1.895000000
H    -4.779000000     5.655000000     1.384000000
O    -5.739000000    -2.978000000     5.084000000
H    -5.937000000    -2.724000000     4.182000000
H    -5.305000000    -2.212000000     5.458000000
O    -8.037000000    -0.523000000     4.992000000
H    -8.198000000    -1.166000000     4.302000000
H    -7.284000000    -0.021000000     4.681000000
O    -7.755000000     0.641000000     1.811000000
H    -7.196000000     1.385000000     1.587000000
H    -8.138000000     0.874000000     2.657000000
O    -8.138000000    -2.884000000     3.051000000
H    -7.315000000    -2.569000000     2.677000000
H    -8.214000000    -3.785000000     2.737000000
O    -3.975000000     6.217000000     5.460000000
H    -4.058000000     6.356000000     6.404000000
H    -3.033000000     6.134000000     5.312000000
O    -5.998000000    -1.490000000     2.425000000
H    -5.114000000    -1.138000000     2.527000000
H    -6.542000000    -0.723000000     2.248000000
O    -0.145000000     2.488000000     3.077000000
H     0.252000000     2.271000000     2.234000000
H    -0.925000000     1.934000000     3.124000000
O    -4.029000000    -0.671000000     5.650000000
H    -4.224000000    -0.674000000     4.713000000
H    -3.279000000    -0.083000000     5.737000000
O    -1.775000000     4.528000000     4.019000000
H    -0.984000000     4.045000000     3.780000000
H    -1.565000000     4.928000000     4.863000000
O    -3.774000000     4.290000000     1.993000000
H    -3.241000000     4.539000000     2.748000000
H    -3.792000000     3.333000000     2.017000000
