215
-1460.77221
C    -4.531000000    -0.682000000    -2.503000000
H    -4.220000000    -1.722000000    -2.443000000
C    -3.637000000     0.254000000    -3.006000000
C    -3.916000000     1.598000000    -3.034000000
H    -3.155000000     2.315000000    -3.331000000
C    -2.238000000    -0.324000000    -3.467000000
O    -2.274000000    -1.710000000    -3.763000000
H    -1.517000000    -0.112000000    -2.664000000
O    -1.766000000     0.373000000    -4.661000000
C    -0.411000000     0.734000000    -4.628000000
C    -0.096000000     1.996000000    -4.148000000
H    -0.965000000     2.630000000    -3.992000000
C     1.178000000     2.276000000    -3.733000000
O     1.337000000     3.497000000    -2.991000000
C     2.236000000     1.360000000    -3.922000000
C     3.624000000     1.783000000    -3.627000000
H     4.338000000     1.189000000    -4.201000000
C     3.981000000     1.503000000    -2.150000000
C     4.480000000     0.229000000    -1.855000000
H     4.542000000    -0.525000000    -2.636000000
H     3.855000000     2.816000000    -3.895000000
C     1.922000000     0.103000000    -4.521000000
H     2.673000000    -0.643000000    -4.771000000
C     0.623000000    -0.208000000    -4.867000000
C     0.285000000    -1.594000000    -5.302000000
H     1.181000000    -1.852000000    -5.871000000
H    -0.556000000    -1.676000000    -5.994000000
C     0.081000000    -2.430000000    -4.014000000
C     1.082000000    -3.277000000    -3.604000000
H     2.054000000    -3.386000000    -4.079000000
C    -1.206000000    -2.491000000    -3.376000000
C    -1.440000000    -3.432000000    -2.365000000
H    -2.326000000    -3.412000000    -1.736000000
C    -0.426000000    -4.253000000    -2.000000000
O    -0.589000000    -5.033000000    -0.922000000
C    -0.186000000    -4.365000000     0.297000000
C    -1.293000000    -4.395000000     1.333000000
C    -0.948000000    -4.470000000     2.716000000
H     0.080000000    -4.396000000     3.060000000
C    -2.659000000    -4.456000000     0.941000000
H    -2.957000000    -4.476000000    -0.104000000
O     0.969000000    -4.958000000     0.773000000
H    -0.019000000    -3.293000000     0.114000000
C     0.831000000    -4.117000000    -2.538000000
C     1.971000000    -4.858000000    -1.964000000
H     2.737000000    -5.072000000    -2.713000000
H     1.795000000    -5.898000000    -1.683000000
C     2.625000000    -4.166000000    -0.786000000
C     3.695000000    -3.272000000    -0.924000000
H     4.281000000    -3.188000000    -1.835000000
C     2.138000000    -4.286000000     0.532000000
C     2.667000000    -3.487000000     1.557000000
H     2.137000000    -3.544000000     2.505000000
C     3.631000000    -2.509000000     1.365000000
O     3.966000000    -1.771000000     2.441000000
C     3.605000000    -0.372000000     2.385000000
C     3.150000000     0.114000000     3.726000000
C     2.567000000    -0.760000000     4.656000000
H     2.603000000    -1.832000000     4.480000000
C     3.131000000     1.499000000     3.996000000
H     3.506000000     2.170000000     3.228000000
O     4.674000000     0.403000000     1.846000000
H     2.645000000    -0.274000000     1.856000000
C     4.131000000    -2.432000000     0.074000000
C     5.269000000    -1.446000000    -0.219000000
H     5.799000000    -1.825000000    -1.095000000
H     6.015000000    -1.289000000     0.564000000
C     4.724000000    -0.080000000    -0.530000000
C     4.549000000     0.764000000     0.548000000
C     3.977000000     2.033000000     0.336000000
H     3.856000000     2.807000000     1.090000000
C     3.672000000     2.371000000    -1.068000000
O     2.964000000     3.494000000    -1.322000000
C     1.550000000     3.436000000    -1.608000000
H     1.153000000     2.480000000    -1.236000000
C     0.831000000     4.655000000    -0.918000000
C    -0.245000000     5.305000000    -1.529000000
H    -0.478000000     5.010000000    -2.549000000
C     1.173000000     4.985000000     0.345000000
H     2.005000000     4.468000000     0.816000000
C     0.489000000     5.986000000     1.061000000
O     0.895000000     6.361000000     2.330000000
C    -0.651000000     6.517000000     0.498000000
H    -1.246000000     7.205000000     1.092000000
C    -1.056000000     6.163000000    -0.787000000
O    -2.207000000     6.761000000    -1.316000000
C    -3.031000000     6.205000000    -2.279000000
C    -3.709000000     5.009000000    -1.936000000
H    -3.620000000     4.621000000    -0.924000000
C    -3.210000000     6.753000000    -3.543000000
H    -2.919000000     7.777000000    -3.762000000
C    -4.152000000     6.202000000    -4.413000000
H    -4.284000000     6.619000000    -5.408000000
C    -4.824000000     4.998000000    -4.082000000
H    -5.546000000     4.604000000    -4.792000000
C    -4.741000000     4.482000000    -2.778000000
O    -5.511000000     3.407000000    -2.365000000
C    -5.069000000     2.055000000    -2.439000000
C    -6.007000000     1.111000000    -2.033000000
H    -6.963000000     1.504000000    -1.697000000
C    -5.840000000    -0.287000000    -2.023000000
O    -6.843000000    -1.171000000    -1.554000000
C    -6.385000000    -2.406000000    -1.208000000
C    -5.846000000    -2.713000000     0.020000000
H    -5.489000000    -1.900000000     0.646000000
C    -6.642000000    -3.424000000    -2.114000000
H    -7.159000000    -3.197000000    -3.042000000
C    -6.441000000    -4.776000000    -1.755000000
H    -6.684000000    -5.578000000    -2.447000000
C    -5.745000000    -5.034000000    -0.594000000
H    -5.464000000    -6.050000000    -0.328000000
C    -5.508000000    -4.058000000     0.350000000
O    -5.005000000    -4.315000000     1.605000000
C    -3.625000000    -4.365000000     1.911000000
C    -3.215000000    -4.281000000     3.234000000
H    -3.885000000    -4.412000000     4.079000000
C    -1.916000000    -4.347000000     3.664000000
O    -1.680000000    -4.245000000     5.070000000
C    -0.451000000    -4.010000000     5.607000000
C    -0.188000000    -2.682000000     5.903000000
H    -0.898000000    -1.903000000     5.638000000
C     0.551000000    -4.943000000     5.762000000
H     0.362000000    -5.959000000     5.423000000
C     1.721000000    -4.636000000     6.389000000
H     2.516000000    -5.360000000     6.551000000
C     1.986000000    -3.325000000     6.732000000
H     3.033000000    -3.211000000     7.003000000
C     1.068000000    -2.337000000     6.474000000
O     1.337000000    -1.032000000     6.797000000
C     2.038000000    -0.257000000     5.855000000
C     2.019000000     1.128000000     6.073000000
H     1.552000000     1.506000000     6.979000000
C     2.549000000     1.974000000     5.182000000
O     2.538000000     3.269000000     5.569000000
C     2.766000000     4.270000000     4.705000000
C     4.071000000     4.754000000     4.524000000
H     4.880000000     4.402000000     5.159000000
C     4.380000000     5.721000000     3.535000000
H     5.391000000     6.122000000     3.522000000
C     3.229000000     6.196000000     2.749000000
H     3.466000000     6.852000000     1.915000000
C     1.940000000     5.771000000     2.971000000
C     1.713000000     4.816000000     3.977000000
H     0.706000000     4.449000000     4.156000000
C    -2.011000000    -0.014000000     0.392000000
H    -2.753000000     0.612000000    -0.099000000
C    -0.729000000    -0.057000000    -0.132000000
H    -0.472000000     0.347000000    -1.108000000
C     0.260000000    -0.641000000     0.576000000
H     1.241000000    -0.727000000     0.156000000
C     0.009000000    -1.124000000     1.892000000
H     0.758000000    -1.628000000     2.498000000
C    -1.325000000    -1.080000000     2.397000000
H    -1.539000000    -1.412000000     3.410000000
C    -2.351000000    -0.536000000     1.614000000
C    -3.638000000    -0.274000000     2.217000000
O    -3.926000000    -0.855000000     3.212000000
O    -4.460000000     0.405000000     1.667000000
O    -8.600000000    -1.866000000     2.061000000
H    -8.381000000    -1.008000000     1.699000000
H    -8.566000000    -2.459000000     1.310000000
O    -9.176000000     1.733000000     2.267000000
H    -9.815000000     2.000000000     1.606000000
H    -8.777000000     0.941000000     1.907000000
O    -2.338000000    -2.183000000     8.209000000
H    -2.479000000    -2.122000000     7.264000000
H    -3.217000000    -2.259000000     8.579000000
O    -7.606000000    -4.849000000     3.838000000
H    -8.469000000    -4.542000000     3.561000000
H    -7.023000000    -4.108000000     3.671000000
O    -4.257000000     5.599000000     2.290000000
H    -3.329000000     5.740000000     2.477000000
H    -4.700000000     5.791000000     3.117000000
O    -4.079000000     2.800000000     7.932000000
H    -3.233000000     3.164000000     8.195000000
H    -3.858000000     1.991000000     7.471000000
O    -2.307000000     0.454000000     5.470000000
H    -2.867000000    -0.306000000     5.312000000
H    -2.090000000     0.403000000     6.401000000
O    -3.307000000     2.922000000     1.025000000
H    -3.888000000     2.164000000     0.963000000
H    -3.870000000     3.631000000     1.333000000
O    -0.579000000     2.681000000     1.347000000
H    -0.531000000     1.824000000     0.924000000
H    -1.507000000     2.914000000     1.311000000
O    -7.781000000     0.971000000     4.962000000
H    -7.459000000     0.830000000     4.072000000
H    -7.033000000     1.339000000     5.432000000
O    -6.181000000    -3.097000000     6.517000000
H    -6.446000000    -2.578000000     5.757000000
H    -6.496000000    -3.980000000     6.326000000
O    -7.712000000     4.168000000     2.750000000
H    -6.835000000     4.214000000     3.131000000
H    -7.895000000     3.230000000     2.685000000
O    -7.037000000     0.631000000     1.038000000
H    -6.174000000     0.771000000     1.428000000
H    -6.859000000     0.490000000     0.108000000
O    -6.431000000    -2.297000000     3.949000000
H    -5.725000000    -1.775000000     3.568000000
H    -7.231000000    -1.925000000     3.579000000
O    -3.084000000     4.519000000     5.072000000
H    -2.372000000     4.027000000     5.482000000
H    -3.583000000     3.860000000     4.588000000
O    -4.216000000     2.175000000     3.933000000
H    -4.602000000     1.529000000     3.342000000
H    -3.623000000     1.669000000     4.487000000
O    -3.755000000    -1.766000000     5.682000000
H    -4.157000000    -1.454000000     4.871000000
H    -4.456000000    -2.235000000     6.133000000
O    -0.575000000     2.981000000     6.430000000
H    -0.488000000     2.701000000     5.518000000
H    -0.891000000     2.204000000     6.890000000
O    -0.328000000     2.247000000     4.005000000
H    -0.043000000     2.405000000     3.105000000
H    -0.905000000     1.485000000     3.944000000
