215
-1451.89733
C    -4.672000000    -0.789000000    -3.024000000
H    -4.491000000    -1.861000000    -2.991000000
C    -3.713000000     0.096000000    -3.515000000
C    -4.004000000     1.452000000    -3.451000000
H    -3.239000000     2.180000000    -3.707000000
C    -2.283000000    -0.314000000    -3.795000000
O    -2.259000000    -1.558000000    -4.513000000
H    -1.774000000    -0.302000000    -2.820000000
O    -1.615000000     0.700000000    -4.641000000
C    -0.310000000     0.960000000    -4.364000000
C     0.016000000     2.095000000    -3.661000000
H    -0.769000000     2.756000000    -3.304000000
C     1.355000000     2.429000000    -3.384000000
O     1.513000000     3.550000000    -2.707000000
C     2.343000000     1.604000000    -3.734000000
C     3.802000000     1.943000000    -3.492000000
H     4.359000000     1.415000000    -4.268000000
C     4.228000000     1.508000000    -2.094000000
C     4.841000000     0.167000000    -1.898000000
H     5.059000000    -0.491000000    -2.735000000
H     3.950000000     3.018000000    -3.619000000
C     1.978000000     0.495000000    -4.511000000
H     2.766000000    -0.164000000    -4.865000000
C     0.676000000     0.111000000    -4.790000000
C     0.434000000    -1.267000000    -5.446000000
H     1.302000000    -1.667000000    -5.974000000
H    -0.212000000    -1.262000000    -6.326000000
C     0.093000000    -2.327000000    -4.407000000
C     1.093000000    -3.164000000    -3.897000000
H     2.126000000    -3.102000000    -4.229000000
C    -1.260000000    -2.472000000    -4.048000000
C    -1.554000000    -3.266000000    -2.976000000
H    -2.529000000    -3.271000000    -2.495000000
C    -0.543000000    -4.085000000    -2.416000000
O    -0.794000000    -4.837000000    -1.340000000
C    -0.464000000    -4.363000000    -0.009000000
C    -1.528000000    -4.339000000     1.048000000
C    -1.241000000    -4.518000000     2.406000000
H    -0.233000000    -4.671000000     2.783000000
C    -2.868000000    -4.235000000     0.667000000
H    -3.141000000    -4.097000000    -0.376000000
O     0.736000000    -5.011000000     0.556000000
H    -0.168000000    -3.307000000    -0.102000000
C     0.770000000    -4.083000000    -2.881000000
C     1.872000000    -4.843000000    -2.142000000
H     2.754000000    -4.924000000    -2.781000000
H     1.553000000    -5.852000000    -1.870000000
C     2.412000000    -4.090000000    -0.915000000
C     3.528000000    -3.245000000    -1.062000000
H     3.938000000    -3.117000000    -2.061000000
C     1.897000000    -4.247000000     0.357000000
C     2.466000000    -3.493000000     1.428000000
H     2.091000000    -3.568000000     2.445000000
C     3.569000000    -2.640000000     1.231000000
O     3.950000000    -1.949000000     2.398000000
C     3.684000000    -0.475000000     2.384000000
C     3.121000000     0.064000000     3.722000000
C     1.973000000    -0.464000000     4.286000000
H     1.387000000    -1.278000000     3.867000000
C     3.613000000     1.289000000     4.233000000
H     4.461000000     1.831000000     3.823000000
O     4.903000000     0.162000000     1.824000000
H     2.874000000    -0.299000000     1.661000000
C     4.186000000    -2.576000000    -0.020000000
C     5.388000000    -1.666000000    -0.243000000
H     5.986000000    -2.030000000    -1.080000000
H     6.117000000    -1.683000000     0.570000000
C     4.958000000    -0.264000000    -0.570000000
C     4.720000000     0.564000000     0.541000000
C     4.149000000     1.815000000     0.329000000
H     3.873000000     2.404000000     1.200000000
C     3.972000000     2.280000000    -0.940000000
O     3.210000000     3.379000000    -1.053000000
C     1.765000000     3.333000000    -1.298000000
H     1.401000000     2.311000000    -1.116000000
C     0.967000000     4.326000000    -0.442000000
C    -0.363000000     4.652000000    -0.809000000
H    -0.733000000     4.162000000    -1.706000000
C     1.488000000     4.899000000     0.702000000
H     2.526000000     4.785000000     1.004000000
C     0.762000000     5.660000000     1.555000000
O     1.308000000     6.375000000     2.650000000
C    -0.608000000     5.834000000     1.248000000
H    -1.259000000     6.407000000     1.904000000
C    -1.170000000     5.363000000     0.083000000
O    -2.499000000     5.643000000    -0.196000000
C    -2.980000000     5.339000000    -1.414000000
C    -4.078000000     4.557000000    -1.606000000
H    -4.502000000     4.109000000    -0.711000000
C    -2.425000000     5.953000000    -2.534000000
H    -1.659000000     6.722000000    -2.464000000
C    -2.970000000     5.698000000    -3.791000000
H    -2.541000000     6.228000000    -4.637000000
C    -4.071000000     4.894000000    -3.899000000
H    -4.590000000     4.840000000    -4.853000000
C    -4.548000000     4.218000000    -2.817000000
O    -5.543000000     3.249000000    -2.994000000
C    -5.307000000     1.894000000    -2.924000000
C    -6.343000000     0.973000000    -2.610000000
H    -7.354000000     1.246000000    -2.316000000
C    -5.959000000    -0.377000000    -2.645000000
O    -6.871000000    -1.361000000    -2.243000000
C    -6.562000000    -2.612000000    -1.753000000
C    -6.105000000    -2.700000000    -0.423000000
H    -6.038000000    -1.817000000     0.207000000
C    -6.658000000    -3.712000000    -2.610000000
H    -7.059000000    -3.673000000    -3.620000000
C    -6.209000000    -4.940000000    -2.161000000
H    -6.190000000    -5.839000000    -2.773000000
C    -5.657000000    -4.972000000    -0.833000000
H    -5.272000000    -5.909000000    -0.438000000
C    -5.667000000    -3.921000000     0.036000000
O    -5.228000000    -4.100000000     1.350000000
C    -3.901000000    -4.291000000     1.646000000
C    -3.531000000    -4.357000000     3.038000000
H    -4.363000000    -4.374000000     3.738000000
C    -2.213000000    -4.451000000     3.425000000
O    -1.753000000    -4.646000000     4.713000000
C    -0.712000000    -3.980000000     5.297000000
C    -0.784000000    -2.582000000     5.455000000
H    -1.665000000    -2.036000000     5.128000000
C     0.376000000    -4.665000000     5.752000000
H     0.382000000    -5.752000000     5.776000000
C     1.363000000    -4.005000000     6.436000000
H     2.209000000    -4.601000000     6.771000000
C     1.301000000    -2.627000000     6.625000000
H     2.068000000    -2.122000000     7.207000000
C     0.301000000    -1.894000000     6.024000000
O     0.296000000    -0.512000000     6.121000000
C     1.381000000     0.128000000     5.449000000
C     1.787000000     1.350000000     5.915000000
H     1.348000000     1.718000000     6.838000000
C     2.948000000     1.951000000     5.306000000
O     3.387000000     3.152000000     5.784000000
C     3.252000000     4.376000000     5.084000000
C     4.132000000     5.386000000     5.460000000
H     4.921000000     5.213000000     6.188000000
C     4.192000000     6.626000000     4.844000000
H     4.927000000     7.375000000     5.128000000
C     3.297000000     6.858000000     3.837000000
H     3.242000000     7.843000000     3.381000000
C     2.321000000     5.937000000     3.489000000
C     2.293000000     4.681000000     4.104000000
H     1.628000000     3.881000000     3.788000000
C    -2.480000000     0.682000000     0.217000000
H    -3.378000000     1.006000000    -0.303000000
C    -1.278000000     0.791000000    -0.470000000
H    -1.326000000     1.318000000    -1.420000000
C    -0.080000000     0.278000000     0.076000000
H     0.882000000     0.243000000    -0.512000000
C    -0.113000000    -0.411000000     1.304000000
H     0.753000000    -0.886000000     1.757000000
C    -1.320000000    -0.530000000     2.054000000
H    -1.328000000    -1.108000000     2.975000000
C    -2.482000000     0.014000000     1.480000000
C    -3.862000000    -0.040000000     2.146000000
O    -3.903000000    -0.341000000     3.363000000
O    -4.852000000     0.563000000     1.658000000
O    -5.036000000     5.625000000     1.831000000
H    -4.686000000     5.971000000     2.652000000
H    -4.656000000     4.749000000     1.760000000
O    -9.264000000     1.411000000     0.974000000
H    -8.490000000     1.915000000     0.720000000
H    -9.346000000     0.741000000     0.296000000
O    -9.952000000     0.766000000     3.673000000
H    -9.773000000     0.982000000     2.758000000
H    -9.091000000     0.577000000     4.047000000
O    -9.015000000     3.042000000    -1.874000000
H    -9.633000000     2.549000000    -1.335000000
H    -8.195000000     3.020000000    -1.380000000
O    -3.420000000    -1.382000000     8.409000000
H    -3.800000000    -1.404000000     7.531000000
H    -2.863000000    -2.159000000     8.449000000
O    -5.859000000     4.938000000     5.516000000
H    -4.913000000     4.798000000     5.544000000
H    -6.152000000     4.778000000     6.413000000
O    -7.008000000     3.424000000     3.524000000
H    -6.698000000     2.520000000     3.580000000
H    -6.548000000     3.879000000     4.230000000
O    -5.827000000     0.924000000     8.160000000
H    -5.960000000     1.290000000     7.285000000
H    -5.092000000     0.319000000     8.057000000
O    -4.032000000     2.461000000     4.620000000
H    -4.206000000     1.555000000     4.365000000
H    -4.031000000     2.946000000     3.794000000
O    -3.953000000     3.038000000     1.583000000
H    -3.003000000     2.928000000     1.598000000
H    -4.299000000     2.150000000     1.670000000
O    -8.921000000    -1.726000000     5.890000000
H    -8.924000000    -1.192000000     6.685000000
H    -8.104000000    -2.222000000     5.937000000
O    -6.489000000    -2.837000000     5.048000000
H    -6.842000000    -2.417000000     4.264000000
H    -6.917000000    -3.693000000     5.075000000
O    -7.058000000     2.799000000     0.498000000
H    -6.352000000     2.165000000     0.627000000
H    -6.731000000     3.606000000     0.896000000
O    -7.685000000    -1.680000000     2.764000000
H    -8.375000000    -1.935000000     2.151000000
H    -7.134000000    -1.075000000     2.266000000
O    -3.517000000     3.913000000     6.819000000
H    -3.394000000     3.152000000     6.252000000
H    -2.970000000     3.733000000     7.584000000
O    -6.642000000     0.678000000     4.146000000
H    -6.014000000     0.685000000     3.424000000
H    -6.475000000    -0.148000000     4.600000000
O    -4.358000000    -1.170000000     5.803000000
H    -4.003000000    -0.859000000     4.970000000
H    -4.746000000    -2.020000000     5.595000000
O    -1.034000000     4.415000000     4.765000000
H    -1.948000000     4.644000000     4.931000000
H    -1.053000000     3.941000000     3.933000000
O    -1.055000000     2.744000000     2.283000000
H    -0.546000000     3.103000000     1.556000000
H    -0.722000000     1.853000000     2.392000000
