215
-1420.04622
C    -4.297000000    -1.193000000    -3.569000000
H    -3.973000000    -2.228000000    -3.650000000
C    -3.367000000    -0.111000000    -3.720000000
C    -3.811000000     1.243000000    -3.557000000
H    -3.127000000     2.081000000    -3.668000000
C    -1.902000000    -0.453000000    -3.959000000
O    -1.705000000    -1.683000000    -4.627000000
H    -1.357000000    -0.396000000    -3.006000000
O    -1.228000000     0.532000000    -4.788000000
C     0.003000000     0.965000000    -4.450000000
C     0.118000000     2.182000000    -3.759000000
H    -0.752000000     2.803000000    -3.563000000
C     1.340000000     2.608000000    -3.373000000
O     1.408000000     3.806000000    -2.665000000
C     2.474000000     1.877000000    -3.690000000
C     3.848000000     2.229000000    -3.234000000
H     4.464000000     1.711000000    -3.972000000
C     4.089000000     1.831000000    -1.811000000
C     4.672000000     0.630000000    -1.516000000
H     4.853000000    -0.103000000    -2.298000000
H     3.986000000     3.293000000    -3.433000000
C     2.319000000     0.716000000    -4.468000000
H     3.176000000     0.172000000    -4.857000000
C     1.089000000     0.168000000    -4.772000000
C     1.040000000    -1.204000000    -5.482000000
H     2.036000000    -1.523000000    -5.798000000
H     0.349000000    -1.208000000    -6.327000000
C     0.633000000    -2.208000000    -4.356000000
C     1.585000000    -3.014000000    -3.737000000
H     2.611000000    -2.741000000    -3.968000000
C    -0.759000000    -2.464000000    -4.123000000
C    -1.144000000    -3.331000000    -3.132000000
H    -2.190000000    -3.489000000    -2.882000000
C    -0.169000000    -4.069000000    -2.465000000
O    -0.538000000    -4.657000000    -1.268000000
C    -0.210000000    -4.152000000     0.032000000
C    -1.448000000    -4.329000000     0.898000000
C    -1.289000000    -4.386000000     2.323000000
H    -0.266000000    -4.363000000     2.691000000
C    -2.692000000    -4.211000000     0.363000000
H    -2.825000000    -3.943000000    -0.682000000
O     0.983000000    -4.680000000     0.572000000
H    -0.029000000    -3.070000000    -0.053000000
C     1.255000000    -3.899000000    -2.729000000
C     2.398000000    -4.585000000    -2.057000000
H     3.221000000    -4.722000000    -2.762000000
H     2.221000000    -5.625000000    -1.774000000
C     2.827000000    -3.816000000    -0.822000000
C     3.917000000    -2.957000000    -0.860000000
H     4.364000000    -2.835000000    -1.844000000
C     2.213000000    -4.014000000     0.427000000
C     2.663000000    -3.314000000     1.567000000
H     2.249000000    -3.407000000     2.568000000
C     3.785000000    -2.499000000     1.560000000
O     4.052000000    -1.658000000     2.646000000
C     3.731000000    -0.233000000     2.581000000
C     3.277000000     0.216000000     3.942000000
C     2.280000000    -0.513000000     4.554000000
H     1.861000000    -1.393000000     4.073000000
C     3.535000000     1.481000000     4.429000000
H     4.099000000     2.169000000     3.804000000
O     4.796000000     0.574000000     2.035000000
H     2.849000000    -0.163000000     1.927000000
C     4.366000000    -2.286000000     0.292000000
C     5.449000000    -1.250000000     0.052000000
H     6.031000000    -1.622000000    -0.794000000
H     6.115000000    -1.241000000     0.918000000
C     4.987000000     0.173000000    -0.204000000
C     4.699000000     1.073000000     0.809000000
C     4.136000000     2.322000000     0.536000000
H     3.736000000     2.907000000     1.361000000
C     3.898000000     2.774000000    -0.765000000
O     3.105000000     3.905000000    -0.981000000
C     1.748000000     3.641000000    -1.217000000
H     1.550000000     2.571000000    -1.050000000
C     0.773000000     4.373000000    -0.199000000
C    -0.617000000     4.455000000    -0.503000000
H    -0.972000000     4.038000000    -1.442000000
C     1.260000000     4.907000000     1.000000000
H     2.330000000     4.992000000     1.171000000
C     0.316000000     5.430000000     1.873000000
O     0.685000000     6.114000000     3.067000000
C    -1.020000000     5.546000000     1.593000000
H    -1.695000000     6.077000000     2.258000000
C    -1.563000000     5.032000000     0.353000000
O    -2.858000000     5.174000000    -0.031000000
C    -3.363000000     5.018000000    -1.304000000
C    -4.220000000     3.962000000    -1.596000000
H    -4.582000000     3.265000000    -0.844000000
C    -3.065000000     5.985000000    -2.223000000
H    -2.411000000     6.823000000    -1.998000000
C    -3.665000000     5.883000000    -3.438000000
H    -3.240000000     6.491000000    -4.232000000
C    -4.548000000     4.885000000    -3.722000000
H    -4.978000000     4.850000000    -4.720000000
C    -4.731000000     3.833000000    -2.848000000
O    -5.611000000     2.826000000    -3.120000000
C    -5.186000000     1.513000000    -3.406000000
C    -6.109000000     0.495000000    -3.423000000
H    -7.182000000     0.657000000    -3.490000000
C    -5.688000000    -0.804000000    -3.395000000
O    -6.675000000    -1.741000000    -3.184000000
C    -6.374000000    -2.947000000    -2.543000000
C    -5.563000000    -3.054000000    -1.386000000
H    -5.166000000    -2.153000000    -0.926000000
C    -6.895000000    -4.058000000    -3.068000000
H    -7.500000000    -4.027000000    -3.971000000
C    -6.784000000    -5.285000000    -2.488000000
H    -7.321000000    -6.112000000    -2.945000000
C    -6.133000000    -5.394000000    -1.242000000
H    -6.119000000    -6.315000000    -0.665000000
C    -5.492000000    -4.279000000    -0.714000000
O    -5.032000000    -4.238000000     0.611000000
C    -3.759000000    -4.224000000     1.226000000
C    -3.667000000    -4.274000000     2.651000000
H    -4.506000000    -4.089000000     3.316000000
C    -2.407000000    -4.319000000     3.201000000
O    -2.274000000    -4.336000000     4.646000000
C    -1.053000000    -3.955000000     5.192000000
C    -0.800000000    -2.597000000     5.371000000
H    -1.552000000    -1.855000000     5.115000000
C    -0.235000000    -4.880000000     5.717000000
H    -0.397000000    -5.929000000     5.482000000
C     0.834000000    -4.583000000     6.467000000
H     1.376000000    -5.401000000     6.935000000
C     1.177000000    -3.236000000     6.572000000
H     2.140000000    -3.134000000     7.066000000
C     0.328000000    -2.220000000     6.107000000
O     0.710000000    -0.839000000     6.365000000
C     1.681000000    -0.095000000     5.722000000
C     1.991000000     1.126000000     6.234000000
H     1.483000000     1.394000000     7.157000000
C     2.912000000     1.923000000     5.571000000
O     3.139000000     3.235000000     6.070000000
C     2.985000000     4.451000000     5.385000000
C     3.908000000     5.516000000     5.555000000
H     4.834000000     5.366000000     6.104000000
C     3.847000000     6.652000000     4.723000000
H     4.589000000     7.447000000     4.728000000
C     2.809000000     6.808000000     3.846000000
H     2.720000000     7.773000000     3.353000000
C     1.842000000     5.855000000     3.762000000
C     1.904000000     4.750000000     4.543000000
H     1.058000000     4.069000000     4.514000000
C    -2.336000000     0.532000000    -0.079000000
H    -2.897000000     1.163000000    -0.763000000
C    -0.966000000     0.588000000    -0.198000000
H    -0.528000000     1.147000000    -1.020000000
C    -0.105000000    -0.068000000     0.651000000
H     0.971000000     0.015000000     0.480000000
C    -0.663000000    -0.898000000     1.626000000
H     0.112000000    -1.394000000     2.205000000
C    -2.037000000    -1.124000000     1.698000000
H    -2.421000000    -1.846000000     2.414000000
C    -2.867000000    -0.200000000     0.997000000
C    -4.342000000    -0.196000000     1.331000000
O    -4.967000000    -0.950000000     2.077000000
O    -4.913000000     0.754000000     0.829000000
O    -4.901000000     5.551000000     2.947000000
H    -4.142000000     5.923000000     3.395000000
H    -4.634000000     4.660000000     2.722000000
O   -10.297000000     1.489000000     1.169000000
H    -9.464000000     1.289000000     0.742000000
H   -10.959000000     1.100000000     0.598000000
O   -10.585000000     0.054000000     3.586000000
H   -11.184000000    -0.383000000     2.980000000
H   -10.136000000     0.708000000     3.050000000
O    -3.109000000    -0.664000000     6.844000000
H    -3.830000000    -0.893000000     6.257000000
H    -2.961000000    -1.456000000     7.361000000
O    -7.488000000    -5.735000000     1.971000000
H    -7.279000000    -4.810000000     2.098000000
H    -8.355000000    -5.732000000     1.565000000
O    -7.389000000     4.734000000     3.902000000
H    -6.494000000     4.928000000     3.623000000
H    -7.330000000     4.655000000     4.854000000
O    -4.806000000     2.790000000     7.017000000
H    -5.092000000     2.650000000     6.114000000
H    -3.934000000     2.398000000     7.056000000
O    -4.670000000     2.413000000     4.299000000
H    -3.937000000     1.806000000     4.399000000
H    -4.598000000     2.730000000     3.399000000
O    -4.286000000     3.107000000     1.787000000
H    -3.471000000     3.249000000     1.306000000
H    -4.611000000     2.266000000     1.465000000
O    -8.464000000    -1.009000000     5.443000000
H    -7.658000000    -0.499000000     5.368000000
H    -8.947000000    -0.812000000     4.640000000
O    -6.134000000    -3.587000000     5.856000000
H    -7.082000000    -3.545000000     5.729000000
H    -5.879000000    -4.428000000     5.476000000
O    -8.802000000    -0.802000000    -0.816000000
H    -8.107000000    -0.259000000    -0.443000000
H    -8.696000000    -0.710000000    -1.762000000
O    -7.621000000     1.477000000     0.300000000
H    -7.640000000     1.922000000     1.147000000
H    -6.696000000     1.283000000     0.152000000
O    -7.457000000    -2.351000000     2.200000000
H    -6.565000000    -2.066000000     2.003000000
H    -7.948000000    -2.173000000     1.397000000
O    -7.151000000     0.944000000     3.129000000
H    -6.603000000     0.269000000     2.726000000
H    -6.531000000     1.607000000     3.432000000
O    -9.767000000    -3.038000000     3.514000000
H    -9.927000000    -3.161000000     2.578000000
H    -8.857000000    -2.747000000     3.565000000
O    -4.796000000    -1.238000000     4.724000000
H    -4.776000000    -1.210000000     3.767000000
H    -5.141000000    -2.106000000     4.931000000
O    -1.620000000     4.104000000     6.007000000
H    -1.441000000     3.342000000     6.558000000
H    -1.935000000     3.734000000     5.182000000
O    -2.321000000     0.866000000     4.340000000
H    -2.280000000     0.527000000     5.234000000
H    -1.430000000     0.767000000     4.005000000
