215
-1443.05832
C    -3.856000000    -0.852000000    -3.829000000
H    -3.467000000    -1.865000000    -3.884000000
C    -2.963000000     0.163000000    -3.876000000
C    -3.408000000     1.516000000    -3.719000000
H    -2.711000000     2.349000000    -3.775000000
C    -1.525000000    -0.119000000    -4.083000000
O    -1.300000000    -1.481000000    -4.709000000
H    -1.054000000     0.019000000    -3.098000000
O    -0.945000000     0.847000000    -4.963000000
C     0.301000000     1.318000000    -4.530000000
C     0.342000000     2.453000000    -3.725000000
H    -0.671000000     2.809000000    -3.560000000
C     1.502000000     2.845000000    -3.022000000
O     1.538000000     3.942000000    -2.248000000
C     2.680000000     2.171000000    -3.269000000
C     3.941000000     2.689000000    -2.569000000
H     4.782000000     2.318000000    -3.158000000
C     4.043000000     2.111000000    -1.183000000
C     4.745000000     0.941000000    -0.932000000
H     5.088000000     0.363000000    -1.787000000
H     4.082000000     3.760000000    -2.728000000
C     2.650000000     0.919000000    -3.982000000
H     3.594000000     0.380000000    -4.018000000
C     1.460000000     0.522000000    -4.668000000
C     1.383000000    -0.802000000    -5.430000000
H     2.344000000    -1.068000000    -5.874000000
H     0.602000000    -0.753000000    -6.191000000
C     0.990000000    -1.937000000    -4.489000000
C     1.955000000    -2.751000000    -3.863000000
H     2.972000000    -2.603000000    -4.219000000
C    -0.311000000    -2.229000000    -4.196000000
C    -0.680000000    -3.288000000    -3.308000000
H    -1.748000000    -3.426000000    -3.164000000
C     0.307000000    -3.864000000    -2.559000000
O    -0.090000000    -4.639000000    -1.575000000
C    -0.040000000    -4.113000000    -0.269000000
C    -1.240000000    -4.387000000     0.591000000
C    -1.019000000    -4.726000000     1.959000000
H    -0.022000000    -4.729000000     2.393000000
C    -2.552000000    -4.194000000     0.146000000
H    -2.781000000    -3.937000000    -0.885000000
O     1.204000000    -4.699000000     0.387000000
H     0.017000000    -3.028000000    -0.439000000
C     1.660000000    -3.763000000    -2.911000000
C     2.736000000    -4.450000000    -2.107000000
H     3.656000000    -4.413000000    -2.694000000
H     2.527000000    -5.515000000    -1.986000000
C     3.089000000    -3.752000000    -0.757000000
C     4.104000000    -2.734000000    -0.652000000
H     4.577000000    -2.559000000    -1.615000000
C     2.390000000    -4.000000000     0.397000000
C     2.700000000    -3.311000000     1.569000000
H     2.089000000    -3.463000000     2.455000000
C     3.628000000    -2.305000000     1.601000000
O     3.659000000    -1.692000000     2.819000000
C     3.151000000    -0.302000000     2.938000000
C     2.440000000    -0.045000000     4.294000000
C     1.752000000    -1.099000000     4.982000000
H     1.714000000    -2.071000000     4.498000000
C     2.350000000     1.298000000     4.750000000
H     2.950000000     2.076000000     4.283000000
O     4.213000000     0.616000000     2.712000000
H     2.470000000    -0.195000000     2.081000000
C     4.414000000    -2.058000000     0.529000000
C     5.471000000    -0.964000000     0.637000000
H     6.281000000    -1.137000000    -0.075000000
H     5.901000000    -0.913000000     1.639000000
C     4.899000000     0.420000000     0.353000000
C     4.309000000     1.148000000     1.425000000
C     3.686000000     2.409000000     1.215000000
H     3.292000000     2.946000000     2.074000000
C     3.557000000     2.907000000    -0.092000000
O     2.796000000     4.083000000    -0.288000000
C     1.512000000     3.761000000    -0.826000000
H     1.256000000     2.704000000    -0.659000000
C     0.475000000     4.642000000    -0.162000000
C    -0.563000000     5.202000000    -0.928000000
H    -0.692000000     5.151000000    -2.006000000
C     0.443000000     4.656000000     1.213000000
H     1.201000000     4.138000000     1.794000000
C    -0.571000000     5.376000000     1.846000000
O    -0.620000000     5.362000000     3.237000000
C    -1.551000000     5.953000000     1.097000000
H    -2.289000000     6.636000000     1.509000000
C    -1.579000000     5.840000000    -0.289000000
O    -2.694000000     6.413000000    -0.910000000
C    -3.091000000     5.869000000    -2.089000000
C    -3.991000000     4.798000000    -2.154000000
H    -4.552000000     4.487000000    -1.277000000
C    -2.664000000     6.355000000    -3.311000000
H    -2.011000000     7.222000000    -3.247000000
C    -2.929000000     5.755000000    -4.510000000
H    -2.579000000     6.154000000    -5.459000000
C    -3.846000000     4.673000000    -4.573000000
H    -4.052000000     4.233000000    -5.546000000
C    -4.248000000     4.176000000    -3.328000000
O    -5.131000000     3.039000000    -3.265000000
C    -4.736000000     1.756000000    -3.495000000
C    -5.601000000     0.681000000    -3.412000000
H    -6.635000000     0.799000000    -3.097000000
C    -5.179000000    -0.626000000    -3.498000000
O    -6.086000000    -1.637000000    -3.301000000
C    -5.801000000    -2.886000000    -2.714000000
C    -5.526000000    -2.965000000    -1.305000000
H    -5.463000000    -2.033000000    -0.749000000
C    -5.976000000    -4.089000000    -3.458000000
H    -6.372000000    -4.132000000    -4.469000000
C    -5.671000000    -5.271000000    -2.816000000
H    -5.730000000    -6.222000000    -3.338000000
C    -5.302000000    -5.351000000    -1.510000000
H    -5.156000000    -6.352000000    -1.112000000
C    -5.335000000    -4.233000000    -0.700000000
O    -4.841000000    -4.344000000     0.584000000
C    -3.585000000    -4.395000000     1.001000000
C    -3.321000000    -4.604000000     2.365000000
H    -4.096000000    -4.721000000     3.118000000
C    -2.030000000    -4.805000000     2.843000000
O    -1.888000000    -4.986000000     4.174000000
C    -0.751000000    -4.599000000     4.797000000
C    -0.811000000    -3.425000000     5.548000000
H    -1.726000000    -2.840000000     5.602000000
C     0.358000000    -5.406000000     4.833000000
H     0.439000000    -6.304000000     4.225000000
C     1.427000000    -5.113000000     5.618000000
H     2.364000000    -5.664000000     5.622000000
C     1.426000000    -3.906000000     6.328000000
H     2.291000000    -3.508000000     6.853000000
C     0.270000000    -3.119000000     6.321000000
O     0.395000000    -1.847000000     6.836000000
C     1.062000000    -0.832000000     6.169000000
C     0.990000000     0.487000000     6.654000000
H     0.425000000     0.704000000     7.557000000
C     1.574000000     1.487000000     5.909000000
O     1.583000000     2.787000000     6.517000000
C     1.436000000     3.889000000     5.780000000
C     2.413000000     4.893000000     6.031000000
H     3.238000000     4.703000000     6.711000000
C     2.256000000     6.093000000     5.403000000
H     2.884000000     6.967000000     5.561000000
C     1.291000000     6.317000000     4.461000000
H     1.175000000     7.272000000     3.957000000
C     0.368000000     5.276000000     4.130000000
C     0.439000000     4.100000000     4.841000000
H    -0.345000000     3.359000000     4.708000000
C    -1.918000000    -0.134000000    -0.175000000
H    -2.658000000     0.222000000    -0.887000000
C    -0.519000000    -0.229000000    -0.422000000
H    -0.105000000     0.080000000    -1.379000000
C     0.333000000    -0.531000000     0.643000000
H     1.455000000    -0.441000000     0.498000000
C    -0.173000000    -0.926000000     1.865000000
H     0.513000000    -1.319000000     2.611000000
C    -1.547000000    -0.967000000     2.055000000
H    -1.951000000    -1.366000000     2.982000000
C    -2.378000000    -0.523000000     1.052000000
C    -3.859000000    -0.209000000     1.364000000
O    -4.355000000    -0.611000000     2.424000000
O    -4.505000000     0.540000000     0.704000000
O    -9.266000000     0.732000000     0.753000000
H    -8.414000000     1.142000000     0.602000000
H    -9.248000000    -0.062000000     0.220000000
O    -2.323000000     0.151000000     6.840000000
H    -2.914000000    -0.357000000     6.285000000
H    -1.492000000    -0.323000000     6.802000000
O   -10.203000000    -2.085000000     1.555000000
H   -10.991000000    -1.585000000     1.340000000
H    -9.657000000    -2.020000000     0.771000000
O    -6.804000000    -5.148000000     2.734000000
H    -6.684000000    -5.873000000     2.120000000
H    -7.670000000    -4.798000000     2.524000000
O    -3.402000000     5.443000000     5.765000000
H    -3.504000000     4.954000000     4.948000000
H    -2.958000000     4.833000000     6.354000000
O    -3.602000000     3.801000000     3.784000000
H    -3.164000000     2.991000000     4.044000000
H    -3.728000000     3.712000000     2.839000000
O    -4.004000000     3.172000000     0.901000000
H    -3.100000000     3.294000000     0.609000000
H    -4.083000000     2.230000000     1.049000000
O    -3.483000000    -2.861000000     7.653000000
H    -3.936000000    -2.106000000     8.029000000
H    -3.971000000    -3.059000000     6.853000000
O    -8.176000000     0.661000000     5.143000000
H    -8.000000000    -0.217000000     4.805000000
H    -8.793000000     1.039000000     4.516000000
O    -5.368000000    -2.869000000     5.648000000
H    -6.090000000    -2.765000000     6.268000000
H    -5.395000000    -3.793000000     5.402000000
O    -9.285000000    -1.359000000    -0.936000000
H    -8.793000000    -1.442000000    -1.753000000
H   -10.202000000    -1.350000000    -1.209000000
O    -4.109000000     2.319000000     7.254000000
H    -4.849000000     2.474000000     6.667000000
H    -3.460000000     1.873000000     6.709000000
O    -6.768000000     1.749000000    -0.068000000
H    -6.640000000     2.064000000    -0.963000000
H    -5.899000000     1.461000000     0.211000000
O    -6.364000000    -2.387000000     2.725000000
H    -6.147000000    -3.277000000     2.446000000
H    -5.591000000    -1.870000000     2.500000000
O    -5.834000000     2.416000000     5.276000000
H    -5.584000000     2.364000000     4.354000000
H    -6.439000000     1.685000000     5.402000000
O    -6.492000000     1.887000000     2.543000000
H    -6.050000000     1.040000000     2.479000000
H    -6.697000000     2.119000000     1.638000000
O    -8.722000000    -1.759000000     3.850000000
H    -9.353000000    -1.816000000     3.133000000
H    -7.883000000    -1.989000000     3.450000000
O    -3.879000000    -0.923000000     4.920000000
H    -4.114000000    -0.772000000     4.004000000
H    -4.567000000    -1.499000000     5.252000000
O    -2.148000000     1.517000000     3.981000000
H    -2.420000000     0.707000000     4.412000000
H    -1.624000000     1.227000000     3.235000000
