215
-1445.21553
C    -3.993000000    -0.389000000    -3.829000000
H    -3.769000000    -1.420000000    -4.091000000
C    -3.059000000     0.614000000    -3.863000000
C    -3.455000000     1.924000000    -3.700000000
H    -2.744000000     2.745000000    -3.744000000
C    -1.628000000     0.229000000    -4.031000000
O    -1.469000000    -1.002000000    -4.712000000
H    -1.030000000     0.150000000    -3.111000000
O    -0.952000000     1.309000000    -4.688000000
C     0.331000000     1.554000000    -4.309000000
C     0.564000000     2.665000000    -3.540000000
H    -0.294000000     3.305000000    -3.350000000
C     1.802000000     2.972000000    -3.073000000
O     2.078000000     4.040000000    -2.248000000
C     2.842000000     2.033000000    -3.312000000
C     4.248000000     2.250000000    -2.644000000
H     4.997000000     1.768000000    -3.278000000
C     4.370000000     1.736000000    -1.180000000
C     4.806000000     0.424000000    -0.943000000
H     5.006000000    -0.174000000    -1.829000000
H     4.456000000     3.321000000    -2.687000000
C     2.621000000     0.929000000    -4.088000000
H     3.463000000     0.269000000    -4.280000000
C     1.374000000     0.641000000    -4.560000000
C     1.300000000    -0.623000000    -5.440000000
H     2.270000000    -0.926000000    -5.839000000
H     0.555000000    -0.508000000    -6.229000000
C     0.845000000    -1.751000000    -4.552000000
C     1.816000000    -2.485000000    -3.903000000
H     2.846000000    -2.224000000    -4.134000000
C    -0.506000000    -1.917000000    -4.303000000
C    -0.893000000    -2.934000000    -3.406000000
H    -1.947000000    -2.978000000    -3.146000000
C     0.066000000    -3.703000000    -2.762000000
O    -0.333000000    -4.528000000    -1.752000000
C    -0.185000000    -4.060000000    -0.398000000
C    -1.436000000    -4.322000000     0.459000000
C    -1.329000000    -4.763000000     1.736000000
H    -0.431000000    -5.167000000     2.196000000
C    -2.663000000    -3.887000000    -0.062000000
H    -2.617000000    -3.337000000    -0.998000000
O     0.957000000    -4.820000000     0.130000000
H     0.030000000    -2.982000000    -0.435000000
C     1.475000000    -3.573000000    -3.024000000
C     2.520000000    -4.466000000    -2.252000000
H     3.426000000    -4.743000000    -2.795000000
H     2.062000000    -5.446000000    -2.098000000
C     2.841000000    -3.786000000    -0.917000000
C     3.968000000    -3.044000000    -0.755000000
H     4.497000000    -2.753000000    -1.659000000
C     2.105000000    -4.072000000     0.203000000
C     2.375000000    -3.527000000     1.378000000
H     1.822000000    -3.867000000     2.251000000
C     3.538000000    -2.748000000     1.559000000
O     3.830000000    -2.073000000     2.746000000
C     3.363000000    -0.692000000     2.937000000
C     2.772000000    -0.425000000     4.352000000
C     1.963000000    -1.465000000     4.822000000
H     1.936000000    -2.390000000     4.252000000
C     2.766000000     0.803000000     4.946000000
H     3.393000000     1.541000000     4.452000000
O     4.497000000     0.269000000     2.738000000
H     2.570000000    -0.496000000     2.200000000
C     4.332000000    -2.596000000     0.447000000
C     5.484000000    -1.601000000     0.445000000
H     6.299000000    -1.718000000    -0.272000000
H     5.947000000    -1.773000000     1.419000000
C     5.036000000    -0.088000000     0.322000000
C     4.641000000     0.740000000     1.436000000
C     4.150000000     2.037000000     1.245000000
H     3.775000000     2.563000000     2.119000000
C     3.989000000     2.550000000    -0.089000000
O     3.387000000     3.787000000    -0.278000000
C     2.067000000     3.741000000    -0.867000000
H     1.735000000     2.702000000    -0.725000000
C     0.957000000     4.522000000    -0.050000000
C    -0.335000000     4.829000000    -0.574000000
H    -0.612000000     4.751000000    -1.623000000
C     1.037000000     4.683000000     1.380000000
H     1.963000000     4.470000000     1.907000000
C     0.118000000     5.433000000     2.097000000
O     0.413000000     5.905000000     3.352000000
C    -1.005000000     5.870000000     1.480000000
H    -1.734000000     6.508000000     1.972000000
C    -1.214000000     5.574000000     0.151000000
O    -2.467000000     6.004000000    -0.302000000
C    -2.971000000     5.735000000    -1.583000000
C    -3.711000000     4.606000000    -1.845000000
H    -3.732000000     3.759000000    -1.165000000
C    -2.960000000     6.820000000    -2.510000000
H    -2.303000000     7.663000000    -2.311000000
C    -3.731000000     6.803000000    -3.707000000
H    -3.659000000     7.542000000    -4.501000000
C    -4.563000000     5.684000000    -3.859000000
H    -5.259000000     5.664000000    -4.694000000
C    -4.514000000     4.652000000    -2.963000000
O    -5.258000000     3.523000000    -3.299000000
C    -4.786000000     2.257000000    -3.520000000
C    -5.743000000     1.280000000    -3.535000000
H    -6.775000000     1.405000000    -3.217000000
C    -5.332000000    -0.046000000    -3.666000000
O    -6.251000000    -1.033000000    -3.707000000
C    -6.077000000    -2.288000000    -3.078000000
C    -5.566000000    -2.239000000    -1.787000000
H    -5.233000000    -1.297000000    -1.360000000
C    -6.487000000    -3.493000000    -3.676000000
H    -6.885000000    -3.437000000    -4.686000000
C    -6.403000000    -4.702000000    -2.926000000
H    -6.557000000    -5.702000000    -3.324000000
C    -5.730000000    -4.582000000    -1.663000000
H    -5.598000000    -5.466000000    -1.045000000
C    -5.409000000    -3.387000000    -1.082000000
O    -4.912000000    -3.265000000     0.223000000
C    -3.818000000    -3.972000000     0.671000000
C    -3.746000000    -4.439000000     1.989000000
H    -4.583000000    -4.490000000     2.680000000
C    -2.496000000    -4.787000000     2.548000000
O    -2.441000000    -5.281000000     3.777000000
C    -1.341000000    -4.992000000     4.559000000
C    -1.062000000    -3.669000000     4.857000000
H    -1.685000000    -2.850000000     4.508000000
C    -0.629000000    -6.054000000     5.205000000
H    -0.926000000    -7.090000000     5.069000000
C     0.457000000    -5.716000000     6.042000000
H     1.039000000    -6.541000000     6.446000000
C     0.758000000    -4.387000000     6.237000000
H     1.517000000    -4.100000000     6.960000000
C    -0.027000000    -3.397000000     5.752000000
O     0.160000000    -2.102000000     6.259000000
C     1.144000000    -1.245000000     5.954000000
C     1.057000000     0.041000000     6.486000000
H     0.311000000     0.061000000     7.276000000
C     1.943000000     1.070000000     6.053000000
O     1.687000000     2.383000000     6.533000000
C     1.966000000     3.529000000     5.765000000
C     3.106000000     4.229000000     6.132000000
H     3.776000000     3.809000000     6.878000000
C     3.375000000     5.517000000     5.515000000
H     4.335000000     5.986000000     5.712000000
C     2.462000000     6.098000000     4.604000000
H     2.699000000     7.046000000     4.126000000
C     1.354000000     5.369000000     4.269000000
C     1.117000000     4.089000000     4.788000000
H     0.298000000     3.475000000     4.423000000
C    -2.146000000     0.823000000     0.410000000
H    -3.102000000     1.288000000     0.182000000
C    -1.092000000     1.059000000    -0.435000000
H    -1.255000000     1.685000000    -1.308000000
C     0.085000000     0.356000000    -0.254000000
H     0.941000000     0.480000000    -0.962000000
C     0.245000000    -0.569000000     0.778000000
H     1.130000000    -1.191000000     0.887000000
C    -0.835000000    -0.764000000     1.630000000
H    -0.754000000    -1.424000000     2.490000000
C    -2.039000000    -0.070000000     1.494000000
C    -3.171000000    -0.151000000     2.486000000
O    -2.991000000    -0.687000000     3.580000000
O    -4.324000000     0.223000000     2.183000000
O    -8.139000000    -0.909000000     6.299000000
H    -8.664000000    -0.514000000     5.602000000
H    -7.500000000    -0.234000000     6.528000000
O    -5.404000000     3.600000000     5.626000000
H    -4.463000000     3.771000000     5.648000000
H    -5.481000000     2.726000000     5.243000000
O    -6.665000000    -4.408000000     5.039000000
H    -6.237000000    -3.636000000     4.670000000
H    -7.576000000    -4.336000000     4.754000000
O    -2.837000000     4.850000000     5.938000000
H    -3.170000000     5.026000000     6.818000000
H    -2.474000000     3.966000000     5.991000000
O    -2.768000000    -2.877000000     7.783000000
H    -3.628000000    -2.725000000     8.176000000
H    -2.462000000    -3.690000000     8.185000000
O    -5.702000000     4.602000000     2.892000000
H    -5.953000000     4.114000000     3.676000000
H    -5.642000000     3.938000000     2.205000000
O    -3.986000000     2.207000000     8.445000000
H    -3.099000000     2.383000000     8.131000000
H    -3.861000000     1.833000000     9.318000000
O    -9.576000000     0.640000000     4.185000000
H    -9.227000000     1.505000000     4.399000000
H   -10.408000000     0.594000000     4.656000000
O    -0.362000000     3.687000000     8.341000000
H     0.507000000     3.500000000     7.985000000
H    -0.955000000     3.147000000     7.819000000
O    -7.911000000     1.268000000    -0.791000000
H    -8.683000000     0.898000000    -1.221000000
H    -7.382000000     0.506000000    -0.553000000
O    -5.894000000     2.497000000     1.141000000
H    -6.343000000     2.042000000     0.429000000
H    -5.319000000     1.834000000     1.524000000
O    -5.633000000    -2.032000000     4.262000000
H    -6.115000000    -1.441000000     3.684000000
H    -4.723000000    -1.742000000     4.198000000
O    -9.187000000    -1.266000000     2.299000000
H    -9.342000000    -0.578000000     2.946000000
H    -8.238000000    -1.394000000     2.308000000
O    -1.711000000     2.071000000     6.783000000
H    -2.194000000     1.264000000     6.962000000
H    -1.218000000     1.883000000     5.985000000
O    -6.556000000     1.296000000     7.018000000
H    -5.722000000     0.828000000     7.068000000
H    -6.311000000     2.221000000     6.987000000
O    -4.390000000     1.235000000     4.735000000
H    -3.892000000     0.582000000     5.226000000
H    -4.387000000     0.911000000     3.834000000
O    -6.295000000    -0.620000000     0.844000000
H    -5.739000000    -0.181000000     1.488000000
H    -5.915000000    -1.495000000     0.757000000
O    -2.656000000    -0.423000000     6.076000000
H    -2.647000000    -1.343000000     6.341000000
H    -2.853000000    -0.445000000     5.140000000
O    -0.831000000     1.368000000     4.394000000
H    -1.330000000     1.338000000     3.578000000
H    -0.614000000     0.453000000     4.576000000
