215
-1467.16042
C    -2.798000000     0.925000000    -3.375000000
H    -2.860000000    -0.148000000    -3.539000000
C    -1.651000000     1.622000000    -3.546000000
C    -1.727000000     3.035000000    -3.432000000
H    -0.803000000     3.584000000    -3.600000000
C    -0.346000000     0.903000000    -3.770000000
O    -0.464000000    -0.284000000    -4.610000000
H    -0.025000000     0.540000000    -2.783000000
O     0.630000000     1.816000000    -4.362000000
C     1.897000000     1.809000000    -3.735000000
C     2.098000000     2.848000000    -2.887000000
H     1.237000000     3.512000000    -2.849000000
C     3.293000000     2.899000000    -2.111000000
O     3.447000000     3.837000000    -1.116000000
C     4.151000000     1.830000000    -2.115000000
C     5.335000000     1.693000000    -1.131000000
H     6.147000000     1.103000000    -1.562000000
C     4.885000000     0.996000000     0.175000000
C     4.995000000    -0.394000000     0.259000000
H     5.449000000    -0.958000000    -0.552000000
H     5.762000000     2.662000000    -0.864000000
C     3.917000000     0.761000000    -2.982000000
H     4.622000000    -0.065000000    -3.031000000
C     2.761000000     0.708000000    -3.751000000
C     2.476000000    -0.391000000    -4.764000000
H     3.431000000    -0.800000000    -5.100000000
H     2.094000000     0.019000000    -5.702000000
C     1.635000000    -1.472000000    -4.228000000
C     2.214000000    -2.601000000    -3.701000000
H     3.300000000    -2.606000000    -3.732000000
C     0.226000000    -1.428000000    -4.282000000
C    -0.554000000    -2.443000000    -3.715000000
H    -1.633000000    -2.336000000    -3.791000000
C     0.050000000    -3.535000000    -3.133000000
O    -0.769000000    -4.496000000    -2.541000000
C    -0.906000000    -4.474000000    -1.105000000
C    -2.341000000    -4.670000000    -0.596000000
C    -2.592000000    -5.240000000     0.619000000
H    -1.788000000    -5.654000000     1.223000000
C    -3.383000000    -4.187000000    -1.343000000
H    -3.258000000    -3.705000000    -2.310000000
O     0.002000000    -5.448000000    -0.526000000
H    -0.656000000    -3.443000000    -0.814000000
C     1.426000000    -3.575000000    -3.104000000
C     2.121000000    -4.788000000    -2.460000000
H     3.076000000    -4.943000000    -2.967000000
H     1.593000000    -5.743000000    -2.503000000
C     2.257000000    -4.533000000    -0.922000000
C     3.385000000    -3.863000000    -0.440000000
H     4.201000000    -3.611000000    -1.114000000
C     1.151000000    -4.852000000    -0.095000000
C     1.204000000    -4.397000000     1.219000000
H     0.331000000    -4.556000000     1.847000000
C     2.245000000    -3.591000000     1.692000000
O     2.018000000    -3.003000000     2.937000000
C     1.789000000    -1.615000000     3.009000000
C     0.688000000    -1.318000000     4.008000000
C    -0.469000000    -2.084000000     4.202000000
H    -0.582000000    -3.001000000     3.630000000
C     0.844000000    -0.090000000     4.726000000
H     1.701000000     0.571000000     4.624000000
O     3.039000000    -0.988000000     3.277000000
H     1.439000000    -1.333000000     2.005000000
C     3.379000000    -3.346000000     0.881000000
C     4.525000000    -2.516000000     1.479000000
H     5.436000000    -2.699000000     0.906000000
H     4.813000000    -2.720000000     2.513000000
C     4.351000000    -1.019000000     1.326000000
C     3.671000000    -0.284000000     2.286000000
C     3.697000000     1.097000000     2.270000000
H     3.298000000     1.600000000     3.147000000
C     4.260000000     1.769000000     1.165000000
O     4.083000000     3.108000000     1.075000000
C     2.983000000     3.491000000     0.226000000
H     2.254000000     2.689000000     0.040000000
C     2.026000000     4.530000000     0.794000000
C     1.346000000     5.440000000    -0.049000000
H     1.622000000     5.473000000    -1.100000000
C     1.632000000     4.522000000     2.142000000
H     1.941000000     3.693000000     2.773000000
C     0.665000000     5.429000000     2.636000000
O     0.223000000     5.522000000     3.987000000
C     0.009000000     6.272000000     1.759000000
H    -0.695000000     6.961000000     2.219000000
C     0.400000000     6.337000000     0.432000000
O    -0.026000000     7.327000000    -0.375000000
C    -0.545000000     7.132000000    -1.613000000
C    -1.503000000     6.128000000    -1.867000000
H    -1.868000000     5.506000000    -1.053000000
C    -0.203000000     8.007000000    -2.730000000
H     0.583000000     8.721000000    -2.499000000
C    -0.788000000     7.824000000    -3.938000000
H    -0.483000000     8.422000000    -4.792000000
C    -1.809000000     6.831000000    -4.169000000
H    -2.244000000     6.821000000    -5.166000000
C    -2.080000000     5.974000000    -3.113000000
O    -3.077000000     5.056000000    -3.357000000
C    -2.922000000     3.688000000    -3.184000000
C    -4.105000000     2.936000000    -2.995000000
H    -5.045000000     3.455000000    -2.825000000
C    -4.040000000     1.539000000    -3.026000000
O    -5.204000000     0.720000000    -2.777000000
C    -5.348000000    -0.586000000    -3.166000000
C    -5.349000000    -1.547000000    -2.152000000
H    -5.295000000    -1.348000000    -1.085000000
C    -5.719000000    -0.935000000    -4.488000000
H    -5.582000000    -0.206000000    -5.283000000
C    -6.072000000    -2.264000000    -4.767000000
H    -6.271000000    -2.622000000    -5.774000000
C    -6.065000000    -3.167000000    -3.755000000
H    -6.437000000    -4.159000000    -3.998000000
C    -5.672000000    -2.847000000    -2.524000000
O    -5.800000000    -3.808000000    -1.562000000
C    -4.687000000    -4.302000000    -0.861000000
C    -4.961000000    -4.818000000     0.373000000
H    -5.974000000    -4.852000000     0.767000000
C    -3.886000000    -5.290000000     1.106000000
O    -4.123000000    -5.839000000     2.371000000
C    -3.385000000    -5.448000000     3.470000000
C    -3.519000000    -4.191000000     3.956000000
H    -4.301000000    -3.537000000     3.580000000
C    -2.499000000    -6.338000000     4.130000000
H    -2.319000000    -7.336000000     3.737000000
C    -1.613000000    -5.934000000     5.084000000
H    -0.793000000    -6.542000000     5.457000000
C    -1.707000000    -4.594000000     5.442000000
H    -0.959000000    -4.268000000     6.161000000
C    -2.686000000    -3.705000000     4.967000000
O    -2.653000000    -2.350000000     5.188000000
C    -1.457000000    -1.640000000     5.063000000
C    -1.248000000    -0.523000000     5.901000000
H    -1.988000000    -0.141000000     6.598000000
C    -0.073000000     0.213000000     5.716000000
O     0.115000000     1.333000000     6.511000000
C     0.751000000     2.491000000     6.095000000
C     2.036000000     2.784000000     6.565000000
H     2.632000000     2.134000000     7.200000000
C     2.726000000     3.909000000     6.136000000
H     3.790000000     4.052000000     6.310000000
C     2.112000000     4.893000000     5.351000000
H     2.685000000     5.743000000     4.990000000
C     0.781000000     4.626000000     4.872000000
C     0.164000000     3.380000000     5.233000000
H    -0.814000000     3.112000000     4.842000000
C    -1.934000000     1.741000000     1.474000000
H    -2.334000000     2.579000000     2.039000000
C    -0.655000000     1.805000000     0.964000000
H     0.086000000     2.550000000     1.244000000
C    -0.235000000     0.834000000    -0.012000000
H     0.735000000     1.017000000    -0.446000000
C    -1.171000000    -0.116000000    -0.478000000
H    -0.930000000    -0.849000000    -1.243000000
C    -2.408000000    -0.141000000     0.092000000
H    -3.177000000    -0.797000000    -0.305000000
C    -2.795000000     0.702000000     1.152000000
C    -4.257000000     0.817000000     1.726000000
O    -4.940000000    -0.202000000     1.851000000
O    -4.793000000     1.911000000     1.967000000
O    -8.346000000     0.641000000     5.010000000
H    -7.797000000     0.605000000     4.227000000
H    -8.039000000    -0.086000000     5.552000000
O    -6.246000000     5.408000000    -0.796000000
H    -6.945000000     5.928000000    -0.399000000
H    -6.598000000     4.519000000    -0.828000000
O    -3.385000000     5.000000000     3.888000000
H    -3.408000000     4.607000000     4.761000000
H    -4.150000000     4.637000000     3.442000000
O    -4.151000000     2.068000000     6.994000000
H    -4.840000000     1.828000000     6.375000000
H    -3.923000000     1.246000000     7.429000000
O    -5.093000000     4.455000000     1.686000000
H    -4.977000000     3.509000000     1.776000000
H    -5.097000000     4.606000000     0.741000000
O    -8.527000000     2.667000000     0.242000000
H    -7.600000000     2.586000000     0.017000000
H    -8.631000000     2.129000000     1.027000000
O    -3.195000000     4.455000000     6.415000000
H    -3.758000000     5.110000000     6.829000000
H    -3.514000000     3.618000000     6.751000000
O   -10.568000000    -1.014000000     2.021000000
H   -10.116000000    -0.600000000     1.285000000
H   -10.223000000    -1.906000000     2.043000000
O    -5.969000000     2.316000000    -0.485000000
H    -5.538000000     2.185000000     0.360000000
H    -5.583000000     1.651000000    -1.056000000
O    -4.756000000    -0.610000000     4.658000000
H    -4.517000000    -0.478000000     3.740000000
H    -4.062000000    -1.170000000     5.007000000
O    -9.205000000    -3.630000000     2.595000000
H    -8.967000000    -4.557000000     2.610000000
H    -8.383000000    -3.174000000     2.415000000
O    -9.003000000     0.621000000    -2.226000000
H    -9.454000000     0.625000000    -3.071000000
H    -8.111000000     0.902000000    -2.429000000
O    -8.668000000    -0.991000000    -0.006000000
H    -8.850000000    -1.851000000    -0.384000000
H    -8.615000000    -0.403000000    -0.759000000
O    -7.290000000     3.178000000     6.278000000
H    -6.802000000     2.816000000     5.538000000
H    -8.127000000     2.714000000     6.263000000
O    -7.800000000     0.837000000     2.190000000
H    -7.906000000     0.083000000     1.610000000
H    -6.863000000     1.030000000     2.162000000
O    -6.869000000    -1.901000000     1.933000000
H    -7.225000000    -1.610000000     1.094000000
H    -6.022000000    -1.462000000     2.000000000
O    -6.881000000    -0.667000000     7.082000000
H    -6.526000000    -0.776000000     7.964000000
H    -6.166000000    -0.272000000     6.583000000
O    -8.782000000     5.523000000     0.135000000
H    -9.623000000     5.885000000     0.413000000
H    -8.623000000     4.797000000     0.739000000
O    -5.553000000     1.856000000     4.542000000
H    -5.292000000     0.937000000     4.594000000
H    -5.330000000     2.118000000     3.649000000
