215
-1438.48470
C    -2.761000000     1.334000000    -4.025000000
H    -2.745000000     0.384000000    -4.553000000
C    -1.517000000     1.995000000    -3.632000000
C    -1.541000000     3.200000000    -2.923000000
H    -0.597000000     3.636000000    -2.608000000
C    -0.155000000     1.381000000    -3.910000000
O    -0.222000000     0.321000000    -4.956000000
H     0.142000000     0.877000000    -2.979000000
O     0.884000000     2.387000000    -4.273000000
C     2.105000000     2.337000000    -3.651000000
C     2.237000000     3.230000000    -2.591000000
H     1.556000000     4.074000000    -2.517000000
C     3.291000000     3.051000000    -1.743000000
O     3.384000000     3.864000000    -0.630000000
C     4.137000000     1.876000000    -1.888000000
C     5.330000000     1.533000000    -0.965000000
H     6.086000000     0.854000000    -1.365000000
C     4.795000000     0.781000000     0.287000000
C     4.820000000    -0.591000000     0.250000000
H     5.238000000    -1.121000000    -0.603000000
H     5.843000000     2.450000000    -0.668000000
C     4.028000000     0.977000000    -2.962000000
H     4.726000000     0.145000000    -3.014000000
C     2.907000000     1.150000000    -3.743000000
C     2.665000000     0.120000000    -4.744000000
H     3.591000000    -0.401000000    -4.998000000
H     2.312000000     0.593000000    -5.663000000
C     1.694000000    -1.020000000    -4.311000000
C     2.258000000    -2.250000000    -3.862000000
H     3.328000000    -2.440000000    -3.836000000
C     0.299000000    -0.855000000    -4.544000000
C    -0.534000000    -1.906000000    -4.211000000
H    -1.616000000    -1.798000000    -4.223000000
C    -0.012000000    -3.105000000    -3.766000000
O    -0.882000000    -3.983000000    -3.148000000
C    -1.044000000    -4.002000000    -1.713000000
C    -2.510000000    -4.021000000    -1.302000000
C    -2.894000000    -4.333000000     0.011000000
H    -2.053000000    -4.640000000     0.627000000
C    -3.525000000    -3.714000000    -2.247000000
H    -3.250000000    -3.550000000    -3.285000000
O    -0.350000000    -5.157000000    -1.107000000
H    -0.588000000    -3.097000000    -1.284000000
C     1.384000000    -3.285000000    -3.563000000
C     1.942000000    -4.557000000    -2.908000000
H     2.928000000    -4.747000000    -3.338000000
H     1.121000000    -5.228000000    -3.168000000
C     1.987000000    -4.261000000    -1.457000000
C     3.130000000    -3.661000000    -0.826000000
H     3.975000000    -3.354000000    -1.436000000
C     0.900000000    -4.722000000    -0.562000000
C     0.927000000    -4.591000000     0.781000000
H     0.015000000    -4.911000000     1.277000000
C     2.092000000    -3.874000000     1.336000000
O     2.019000000    -3.621000000     2.682000000
C     1.967000000    -2.207000000     3.051000000
C     1.019000000    -1.851000000     4.214000000
C    -0.138000000    -2.653000000     4.419000000
H    -0.416000000    -3.493000000     3.788000000
C     1.265000000    -0.858000000     5.146000000
H     2.189000000    -0.286000000     5.116000000
O     3.225000000    -1.640000000     3.387000000
H     1.577000000    -1.677000000     2.170000000
C     3.207000000    -3.492000000     0.569000000
C     4.491000000    -2.926000000     1.113000000
H     5.418000000    -3.132000000     0.573000000
H     4.739000000    -3.402000000     2.064000000
C     4.431000000    -1.419000000     1.261000000
C     3.836000000    -0.790000000     2.407000000
C     3.684000000     0.575000000     2.449000000
H     3.111000000     1.014000000     3.262000000
C     4.082000000     1.399000000     1.326000000
O     3.863000000     2.797000000     1.372000000
C     2.824000000     3.311000000     0.606000000
H     2.194000000     2.463000000     0.300000000
C     1.908000000     4.177000000     1.384000000
C     1.542000000     5.398000000     0.855000000
H     1.745000000     5.585000000    -0.197000000
C     1.604000000     3.914000000     2.744000000
H     1.887000000     2.957000000     3.173000000
C     0.782000000     4.745000000     3.520000000
O     0.195000000     4.324000000     4.714000000
C     0.316000000     5.935000000     2.926000000
H    -0.410000000     6.603000000     3.384000000
C     0.660000000     6.243000000     1.591000000
O     0.099000000     7.265000000     0.918000000
C    -0.427000000     7.105000000    -0.391000000
C    -1.370000000     6.113000000    -0.567000000
H    -1.753000000     5.552000000     0.282000000
C    -0.034000000     7.870000000    -1.477000000
H     0.676000000     8.661000000    -1.250000000
C    -0.695000000     7.834000000    -2.702000000
H    -0.588000000     8.526000000    -3.533000000
C    -1.635000000     6.837000000    -2.837000000
H    -2.133000000     6.694000000    -3.793000000
C    -1.891000000     5.892000000    -1.813000000
O    -2.936000000     5.025000000    -1.989000000
C    -2.784000000     3.831000000    -2.702000000
C    -3.973000000     3.260000000    -3.224000000
H    -4.947000000     3.708000000    -3.040000000
C    -3.988000000     1.978000000    -3.820000000
O    -5.187000000     1.393000000    -4.086000000
C    -5.398000000     0.033000000    -4.460000000
C    -5.495000000    -0.886000000    -3.427000000
H    -5.335000000    -0.416000000    -2.460000000
C    -5.550000000    -0.352000000    -5.820000000
H    -5.408000000     0.389000000    -6.602000000
C    -5.767000000    -1.717000000    -6.051000000
H    -5.633000000    -2.058000000    -7.074000000
C    -5.906000000    -2.620000000    -5.039000000
H    -6.184000000    -3.629000000    -5.333000000
C    -5.768000000    -2.266000000    -3.704000000
O    -5.879000000    -3.211000000    -2.640000000
C    -4.857000000    -3.573000000    -1.812000000
C    -5.230000000    -3.882000000    -0.521000000
H    -6.275000000    -3.980000000    -0.238000000
C    -4.254000000    -4.331000000     0.385000000
O    -4.638000000    -4.932000000     1.605000000
C    -3.848000000    -5.018000000     2.791000000
C    -3.602000000    -3.873000000     3.537000000
H    -4.099000000    -2.927000000     3.337000000
C    -3.196000000    -6.207000000     3.042000000
H    -3.507000000    -7.085000000     2.481000000
C    -2.287000000    -6.317000000     4.140000000
H    -1.790000000    -7.249000000     4.394000000
C    -2.100000000    -5.198000000     4.940000000
H    -1.419000000    -5.180000000     5.788000000
C    -2.771000000    -3.935000000     4.650000000
O    -2.491000000    -2.840000000     5.442000000
C    -1.161000000    -2.345000000     5.385000000
C    -0.830000000    -1.296000000     6.323000000
H    -1.372000000    -1.119000000     7.248000000
C     0.371000000    -0.631000000     6.178000000
O     0.613000000     0.354000000     7.141000000
C     1.024000000     1.627000000     6.921000000
C     2.005000000     2.132000000     7.715000000
H     2.446000000     1.492000000     8.475000000
C     2.452000000     3.400000000     7.448000000
H     3.305000000     3.705000000     8.047000000
C     1.985000000     4.140000000     6.369000000
H     2.567000000     4.989000000     6.019000000
C     0.888000000     3.606000000     5.643000000
C     0.384000000     2.327000000     5.972000000
H    -0.510000000     1.938000000     5.493000000
C    -1.489000000     1.787000000     0.585000000
H    -1.919000000     2.710000000     0.966000000
C    -0.289000000     1.805000000    -0.094000000
H     0.088000000     2.731000000    -0.520000000
C     0.310000000     0.580000000    -0.389000000
H     1.230000000     0.616000000    -0.908000000
C    -0.208000000    -0.654000000     0.033000000
H     0.222000000    -1.625000000    -0.198000000
C    -1.453000000    -0.615000000     0.667000000
H    -1.879000000    -1.582000000     0.919000000
C    -2.086000000     0.589000000     0.957000000
C    -3.374000000     0.640000000     1.762000000
O    -3.789000000    -0.418000000     2.249000000
O    -4.016000000     1.663000000     1.992000000
O    -9.419000000     0.459000000     4.331000000
H    -9.500000000     1.171000000     3.695000000
H    -8.504000000     0.184000000     4.267000000
O    -6.030000000     4.428000000    -0.123000000
H    -6.901000000     4.214000000    -0.457000000
H    -5.550000000     3.600000000    -0.158000000
O    -2.925000000     6.929000000     4.249000000
H    -3.097000000     6.256000000     4.908000000
H    -3.044000000     6.480000000     3.412000000
O    -4.250000000     1.768000000     6.991000000
H    -4.490000000     1.054000000     6.401000000
H    -5.058000000     1.973000000     7.461000000
O    -3.839000000     4.389000000     2.536000000
H    -3.742000000     3.453000000     2.359000000
H    -4.754000000     4.490000000     2.796000000
O    -8.794000000     1.938000000    -0.044000000
H    -8.899000000     1.070000000    -0.434000000
H    -8.352000000     2.452000000    -0.720000000
O    -3.255000000     4.650000000     6.002000000
H    -2.559000000     5.025000000     6.542000000
H    -3.225000000     3.712000000     6.191000000
O    -4.998000000     1.997000000    -0.341000000
H    -4.665000000     1.943000000     0.555000000
H    -5.335000000     1.120000000    -0.525000000
O    -4.037000000    -0.095000000     4.903000000
H    -3.734000000    -0.048000000     3.996000000
H    -3.741000000    -0.952000000     5.211000000
O    -7.214000000    -4.078000000     2.974000000
H    -6.532000000    -4.307000000     3.605000000
H    -6.882000000    -3.294000000     2.537000000
O    -8.454000000     0.158000000    -2.321000000
H    -9.272000000    -0.210000000    -2.654000000
H    -8.086000000     0.635000000    -3.064000000
O    -7.192000000    -1.124000000     0.017000000
H    -7.962000000    -1.682000000     0.131000000
H    -7.301000000    -0.740000000    -0.853000000
O    -6.042000000     4.591000000     5.780000000
H    -5.116000000     4.682000000     6.008000000
H    -6.068000000     3.846000000     5.181000000
O    -8.169000000     3.203000000     2.735000000
H    -8.312000000     2.834000000     1.864000000
H    -7.333000000     2.831000000     3.018000000
O    -6.018000000    -1.768000000     2.206000000
H    -6.258000000    -1.668000000     1.284000000
H    -5.190000000    -1.296000000     2.290000000
O    -7.804000000    -2.563000000     6.432000000
H    -7.641000000    -2.185000000     5.567000000
H    -7.068000000    -3.158000000     6.575000000
O    -6.404000000     6.213000000     2.636000000
H    -5.965000000     5.899000000     1.845000000
H    -7.062000000     5.544000000     2.826000000
O    -6.757000000    -0.228000000     4.424000000
H    -6.929000000    -0.859000000     3.725000000
H    -5.917000000    -0.500000000     4.792000000
O    -5.547000000     2.460000000     3.869000000
H    -5.079000000     2.049000000     3.142000000
H    -5.359000000     1.901000000     4.622000000
