215
-1462.02970
C    -3.048000000     1.328000000    -3.518000000
H    -2.970000000     0.366000000    -4.018000000
C    -1.897000000     2.122000000    -3.457000000
C    -2.020000000     3.387000000    -2.845000000
H    -1.111000000     3.945000000    -2.638000000
C    -0.509000000     1.560000000    -3.794000000
O    -0.561000000     0.518000000    -4.838000000
H    -0.143000000     1.024000000    -2.907000000
O     0.486000000     2.645000000    -3.973000000
C     1.701000000     2.420000000    -3.417000000
C     1.940000000     3.239000000    -2.344000000
H     1.160000000     3.934000000    -2.045000000
C     3.106000000     3.094000000    -1.634000000
O     3.266000000     3.910000000    -0.550000000
C     4.039000000     2.108000000    -1.950000000
C     5.261000000     1.866000000    -1.101000000
H     5.921000000     1.213000000    -1.676000000
C     4.879000000     1.029000000     0.092000000
C     4.972000000    -0.384000000     0.024000000
H     5.436000000    -0.806000000    -0.864000000
H     5.680000000     2.857000000    -0.915000000
C     3.836000000     1.231000000    -3.039000000
H     4.511000000     0.443000000    -3.365000000
C     2.654000000     1.369000000    -3.750000000
C     2.362000000     0.475000000    -4.980000000
H     3.324000000     0.208000000    -5.421000000
H     1.904000000     1.081000000    -5.765000000
C     1.510000000    -0.700000000    -4.543000000
C     2.104000000    -1.883000000    -4.237000000
H     3.187000000    -1.941000000    -4.308000000
C     0.131000000    -0.674000000    -4.548000000
C    -0.657000000    -1.726000000    -4.110000000
H    -1.741000000    -1.640000000    -4.117000000
C    -0.016000000    -2.889000000    -3.694000000
O    -0.778000000    -3.982000000    -3.204000000
C    -0.910000000    -4.080000000    -1.793000000
C    -2.301000000    -4.326000000    -1.293000000
C    -2.595000000    -5.024000000    -0.107000000
H    -1.761000000    -5.519000000     0.384000000
C    -3.332000000    -3.910000000    -2.064000000
H    -3.222000000    -3.527000000    -3.075000000
O     0.065000000    -5.112000000    -1.453000000
H    -0.605000000    -3.088000000    -1.428000000
C     1.351000000    -2.950000000    -3.687000000
C     2.001000000    -4.219000000    -3.168000000
H     2.986000000    -4.256000000    -3.637000000
H     1.398000000    -5.069000000    -3.495000000
C     2.205000000    -4.208000000    -1.692000000
C     3.303000000    -3.665000000    -1.076000000
H     4.137000000    -3.390000000    -1.717000000
C     1.185000000    -4.558000000    -0.838000000
C     1.218000000    -4.328000000     0.563000000
H     0.379000000    -4.624000000     1.187000000
C     2.272000000    -3.658000000     1.072000000
O     2.201000000    -3.322000000     2.440000000
C     2.010000000    -1.988000000     2.820000000
C     0.935000000    -1.731000000     3.909000000
C    -0.190000000    -2.608000000     3.946000000
H    -0.216000000    -3.405000000     3.207000000
C     1.008000000    -0.642000000     4.781000000
H     1.899000000    -0.018000000     4.769000000
O     3.373000000    -1.457000000     3.098000000
H     1.683000000    -1.489000000     1.895000000
C     3.371000000    -3.348000000     0.299000000
C     4.607000000    -2.705000000     0.834000000
H     5.444000000    -2.962000000     0.182000000
H     4.840000000    -3.068000000     1.838000000
C     4.440000000    -1.233000000     1.025000000
C     3.867000000    -0.634000000     2.136000000
C     3.848000000     0.720000000     2.237000000
H     3.548000000     1.140000000     3.194000000
C     4.270000000     1.553000000     1.222000000
O     4.079000000     2.871000000     1.399000000
C     2.952000000     3.416000000     0.740000000
H     2.208000000     2.667000000     0.430000000
C     2.155000000     4.428000000     1.485000000
C     1.381000000     5.431000000     0.857000000
H     1.527000000     5.661000000    -0.195000000
C     2.024000000     4.259000000     2.876000000
H     2.515000000     3.460000000     3.425000000
C     1.112000000     5.065000000     3.572000000
O     1.145000000     4.935000000     4.966000000
C     0.531000000     6.203000000     2.958000000
H     0.011000000     6.947000000     3.557000000
C     0.534000000     6.289000000     1.576000000
O    -0.177000000     7.336000000     0.912000000
C    -0.871000000     7.218000000    -0.317000000
C    -1.673000000     6.099000000    -0.582000000
H    -1.822000000     5.342000000     0.185000000
C    -0.613000000     8.038000000    -1.375000000
H     0.124000000     8.832000000    -1.282000000
C    -1.192000000     7.834000000    -2.637000000
H    -1.151000000     8.693000000    -3.302000000
C    -2.127000000     6.830000000    -2.789000000
H    -2.635000000     6.747000000    -3.746000000
C    -2.469000000     6.040000000    -1.699000000
O    -3.408000000     5.081000000    -1.881000000
C    -3.233000000     3.874000000    -2.439000000
C    -4.404000000     3.119000000    -2.626000000
H    -5.335000000     3.536000000    -2.250000000
C    -4.254000000     1.754000000    -2.965000000
O    -5.382000000     0.975000000    -2.873000000
C    -5.519000000    -0.272000000    -3.475000000
C    -5.550000000    -1.346000000    -2.612000000
H    -5.449000000    -1.315000000    -1.530000000
C    -5.480000000    -0.405000000    -4.862000000
H    -5.371000000     0.509000000    -5.441000000
C    -5.712000000    -1.705000000    -5.404000000
H    -5.646000000    -1.911000000    -6.469000000
C    -5.820000000    -2.793000000    -4.575000000
H    -5.880000000    -3.790000000    -5.004000000
C    -5.801000000    -2.602000000    -3.198000000
O    -5.726000000    -3.651000000    -2.401000000
C    -4.675000000    -4.104000000    -1.672000000
C    -5.010000000    -4.815000000    -0.509000000
H    -6.042000000    -5.058000000    -0.270000000
C    -3.940000000    -5.269000000     0.253000000
O    -4.134000000    -5.952000000     1.426000000
C    -3.358000000    -5.793000000     2.564000000
C    -3.205000000    -4.528000000     3.158000000
H    -3.592000000    -3.632000000     2.680000000
C    -2.827000000    -6.903000000     3.273000000
H    -3.080000000    -7.877000000     2.863000000
C    -2.072000000    -6.780000000     4.500000000
H    -1.725000000    -7.688000000     4.986000000
C    -1.971000000    -5.435000000     5.024000000
H    -1.559000000    -5.357000000     6.027000000
C    -2.470000000    -4.355000000     4.302000000
O    -2.354000000    -3.121000000     4.834000000
C    -1.186000000    -2.446000000     4.900000000
C    -1.112000000    -1.348000000     5.810000000
H    -1.748000000    -1.383000000     6.691000000
C    -0.041000000    -0.451000000     5.773000000
O     0.084000000     0.511000000     6.707000000
C     0.915000000     1.670000000     6.582000000
C     2.107000000     1.689000000     7.273000000
H     2.408000000     0.819000000     7.850000000
C     2.903000000     2.837000000     7.296000000
H     3.822000000     2.917000000     7.872000000
C     2.642000000     3.905000000     6.488000000
H     3.306000000     4.766000000     6.517000000
C     1.506000000     3.826000000     5.674000000
C     0.594000000     2.762000000     5.740000000
H    -0.403000000     2.895000000     5.328000000
C    -1.116000000     1.533000000     0.404000000
H    -1.341000000     2.596000000     0.423000000
C     0.019000000     0.928000000    -0.142000000
H     0.717000000     1.503000000    -0.746000000
C     0.350000000    -0.399000000     0.117000000
H     1.386000000    -0.778000000    -0.170000000
C    -0.513000000    -1.188000000     0.942000000
H    -0.229000000    -2.199000000     1.222000000
C    -1.696000000    -0.640000000     1.424000000
H    -2.362000000    -1.271000000     2.006000000
C    -2.001000000     0.692000000     1.162000000
C    -3.318000000     1.314000000     1.690000000
O    -4.115000000     0.651000000     2.373000000
O    -3.585000000     2.433000000     1.436000000
O    -9.928000000     1.739000000     5.208000000
H    -9.256000000     1.862000000     4.538000000
H    -9.682000000     2.344000000     5.907000000
O    -4.775000000     4.973000000     1.065000000
H    -4.254000000     4.799000000     0.282000000
H    -4.845000000     4.123000000     1.500000000
O    -3.708000000     7.027000000     2.778000000
H    -2.909000000     6.524000000     2.939000000
H    -4.289000000     6.415000000     2.326000000
O    -4.377000000    -0.652000000     7.404000000
H    -4.451000000    -0.666000000     6.449000000
H    -5.083000000    -0.072000000     7.690000000
O    -7.138000000     2.373000000     6.965000000
H    -6.369000000     2.631000000     6.456000000
H    -7.659000000     3.173000000     7.032000000
O    -2.191000000     4.890000000     3.229000000
H    -2.276000000     4.131000000     2.653000000
H    -2.516000000     4.586000000     4.077000000
O    -8.336000000     3.485000000     0.526000000
H    -8.546000000     3.950000000    -0.284000000
H    -7.569000000     2.956000000     0.306000000
O    -4.159000000     3.618000000     5.243000000
H    -4.250000000     4.481000000     5.646000000
H    -3.950000000     3.033000000     5.972000000
O    -6.165000000     2.066000000     0.159000000
H    -5.700000000     2.097000000     0.995000000
H    -5.475000000     2.129000000    -0.502000000
O    -4.411000000    -0.566000000     4.731000000
H    -4.426000000    -0.159000000     3.865000000
H    -4.031000000    -1.432000000     4.583000000
O    -6.304000000    -3.921000000     3.721000000
H    -6.391000000    -4.858000000     3.544000000
H    -5.981000000    -3.552000000     2.899000000
O    -8.814000000     0.930000000    -1.587000000
H    -9.638000000     1.235000000    -1.207000000
H    -8.377000000     1.729000000    -1.881000000
O    -7.813000000    -1.044000000     0.203000000
H    -8.070000000    -0.758000000     1.079000000
H    -8.136000000    -0.356000000    -0.378000000
O    -8.510000000     2.799000000     3.197000000
H    -8.633000000     3.173000000     2.325000000
H    -7.657000000     2.368000000     3.155000000
O    -5.327000000    -1.872000000     1.642000000
H    -6.040000000    -1.909000000     1.004000000
H    -4.985000000    -0.981000000     1.567000000
O    -7.055000000     6.404000000     1.884000000
H    -6.347000000     5.893000000     1.492000000
H    -7.580000000     5.759000000     2.359000000
O    -7.662000000    -0.458000000     3.455000000
H    -7.417000000     0.165000000     4.139000000
H    -6.907000000    -1.042000000     3.381000000
O    -3.418000000     2.064000000     7.750000000
H    -2.625000000     2.415000000     8.157000000
H    -3.388000000     1.126000000     7.938000000
O    -5.781000000     2.022000000     3.636000000
H    -5.080000000     1.577000000     3.160000000
H    -5.328000000     2.538000000     4.302000000
