215
-1480.02571
C    -3.662000000     1.201000000    -3.926000000
H    -3.757000000     0.270000000    -4.479000000
C    -2.435000000     1.873000000    -3.602000000
C    -2.561000000     3.190000000    -3.092000000
H    -1.631000000     3.737000000    -2.958000000
C    -1.047000000     1.240000000    -3.833000000
O    -1.152000000     0.104000000    -4.745000000
H    -0.719000000     0.900000000    -2.840000000
O    -0.153000000     2.188000000    -4.341000000
C     1.121000000     2.125000000    -3.776000000
C     1.426000000     3.017000000    -2.753000000
H     0.621000000     3.641000000    -2.374000000
C     2.608000000     2.842000000    -2.046000000
O     2.749000000     3.722000000    -0.960000000
C     3.600000000     1.901000000    -2.425000000
C     4.967000000     1.817000000    -1.799000000
H     5.668000000     1.274000000    -2.436000000
C     4.903000000     1.125000000    -0.391000000
C     4.997000000    -0.227000000    -0.439000000
H     5.207000000    -0.797000000    -1.340000000
H     5.456000000     2.784000000    -1.660000000
C     3.299000000     1.050000000    -3.447000000
H     4.057000000     0.341000000    -3.771000000
C     2.065000000     1.154000000    -4.117000000
C     1.715000000     0.143000000    -5.213000000
H     2.640000000    -0.237000000    -5.652000000
H     1.163000000     0.549000000    -6.064000000
C     0.920000000    -1.105000000    -4.657000000
C     1.592000000    -2.204000000    -4.224000000
H     2.635000000    -2.204000000    -4.529000000
C    -0.458000000    -1.076000000    -4.488000000
C    -1.140000000    -2.148000000    -4.055000000
H    -2.222000000    -2.121000000    -3.948000000
C    -0.421000000    -3.239000000    -3.550000000
O    -1.165000000    -4.227000000    -2.948000000
C    -1.071000000    -4.240000000    -1.505000000
C    -2.399000000    -4.484000000    -0.871000000
C    -2.537000000    -5.184000000     0.294000000
H    -1.684000000    -5.736000000     0.679000000
C    -3.496000000    -3.647000000    -1.245000000
H    -3.410000000    -2.856000000    -1.986000000
O    -0.089000000    -5.212000000    -1.069000000
H    -0.760000000    -3.239000000    -1.173000000
C     0.965000000    -3.313000000    -3.673000000
C     1.791000000    -4.486000000    -3.090000000
H     2.691000000    -4.619000000    -3.695000000
H     1.266000000    -5.432000000    -3.237000000
C     2.057000000    -4.258000000    -1.594000000
C     3.228000000    -3.643000000    -1.227000000
H     3.958000000    -3.481000000    -2.016000000
C     1.140000000    -4.719000000    -0.628000000
C     1.372000000    -4.355000000     0.699000000
H     0.609000000    -4.474000000     1.464000000
C     2.571000000    -3.670000000     1.070000000
O     2.560000000    -3.193000000     2.393000000
C     2.523000000    -1.781000000     2.697000000
C     1.623000000    -1.457000000     3.902000000
C     0.382000000    -2.031000000     3.864000000
H     0.118000000    -2.695000000     3.045000000
C     1.871000000    -0.424000000     4.827000000
H     2.837000000     0.073000000     4.850000000
O     3.894000000    -1.210000000     2.937000000
H     1.947000000    -1.212000000     1.953000000
C     3.533000000    -3.271000000     0.087000000
C     4.859000000    -2.626000000     0.530000000
H     5.646000000    -2.900000000    -0.175000000
H     5.172000000    -3.016000000     1.501000000
C     4.807000000    -1.057000000     0.693000000
C     4.390000000    -0.455000000     1.912000000
C     4.238000000     0.933000000     1.944000000
H     3.829000000     1.420000000     2.826000000
C     4.486000000     1.763000000     0.838000000
O     4.149000000     3.034000000     0.917000000
C     2.743000000     3.239000000     0.444000000
H     2.249000000     2.257000000     0.453000000
C     1.966000000     4.271000000     1.310000000
C     0.973000000     5.055000000     0.762000000
H     0.734000000     4.943000000    -0.293000000
C     2.215000000     4.257000000     2.678000000
H     2.931000000     3.530000000     3.053000000
C     1.541000000     5.201000000     3.474000000
O     1.706000000     5.289000000     4.861000000
C     0.592000000     6.076000000     2.901000000
H     0.130000000     6.819000000     3.546000000
C     0.248000000     5.991000000     1.486000000
O    -0.715000000     6.785000000     1.022000000
C    -1.189000000     6.674000000    -0.347000000
C    -2.363000000     6.031000000    -0.613000000
H    -2.959000000     5.489000000     0.117000000
C    -0.420000000     7.206000000    -1.390000000
H     0.483000000     7.791000000    -1.239000000
C    -0.802000000     7.030000000    -2.727000000
H    -0.243000000     7.234000000    -3.636000000
C    -2.071000000     6.445000000    -2.986000000
H    -2.551000000     6.395000000    -3.960000000
C    -2.827000000     5.923000000    -1.909000000
O    -3.927000000     5.059000000    -2.216000000
C    -3.784000000     3.787000000    -2.879000000
C    -4.925000000     3.063000000    -3.145000000
H    -5.887000000     3.512000000    -2.913000000
C    -4.893000000     1.762000000    -3.665000000
O    -6.047000000     1.000000000    -3.724000000
C    -6.048000000    -0.356000000    -3.543000000
C    -5.950000000    -0.885000000    -2.259000000
H    -5.809000000    -0.216000000    -1.415000000
C    -6.141000000    -1.099000000    -4.725000000
H    -6.217000000    -0.530000000    -5.648000000
C    -6.284000000    -2.463000000    -4.609000000
H    -6.308000000    -3.033000000    -5.534000000
C    -6.131000000    -3.047000000    -3.350000000
H    -5.881000000    -4.105000000    -3.308000000
C    -5.906000000    -2.266000000    -2.160000000
O    -5.746000000    -2.856000000    -0.931000000
C    -4.694000000    -3.744000000    -0.623000000
C    -4.841000000    -4.591000000     0.492000000
H    -5.720000000    -4.550000000     1.131000000
C    -3.737000000    -5.252000000     0.962000000
O    -3.811000000    -5.957000000     2.164000000
C    -2.943000000    -5.512000000     3.156000000
C    -2.849000000    -4.166000000     3.470000000
H    -3.382000000    -3.390000000     2.926000000
C    -2.094000000    -6.408000000     3.836000000
H    -2.144000000    -7.479000000     3.658000000
C    -1.203000000    -5.970000000     4.784000000
H    -0.444000000    -6.614000000     5.222000000
C    -1.165000000    -4.644000000     5.117000000
H    -0.412000000    -4.322000000     5.832000000
C    -1.983000000    -3.752000000     4.473000000
O    -1.879000000    -2.409000000     4.828000000
C    -0.604000000    -1.773000000     4.763000000
C    -0.333000000    -0.746000000     5.664000000
H    -1.093000000    -0.447000000     6.380000000
C     0.826000000    -0.124000000     5.732000000
O     0.994000000     0.948000000     6.676000000
C     1.748000000     2.040000000     6.563000000
C     2.878000000     2.133000000     7.336000000
H     3.211000000     1.310000000     7.963000000
C     3.656000000     3.311000000     7.277000000
H     4.556000000     3.403000000     7.880000000
C     3.226000000     4.352000000     6.528000000
H     3.815000000     5.266000000     6.546000000
C     2.131000000     4.245000000     5.654000000
C     1.415000000     3.051000000     5.679000000
H     0.469000000     3.030000000     5.144000000
C    -1.044000000     1.190000000    -0.325000000
H    -0.999000000     2.176000000    -0.779000000
C     0.134000000     0.405000000    -0.302000000
H     0.994000000     0.645000000    -0.923000000
C     0.099000000    -0.866000000     0.221000000
H     0.945000000    -1.518000000     0.076000000
C    -1.057000000    -1.379000000     0.821000000
H    -1.152000000    -2.401000000     1.179000000
C    -2.219000000    -0.617000000     0.860000000
H    -3.144000000    -1.072000000     1.205000000
C    -2.194000000     0.725000000     0.359000000
C    -3.387000000     1.641000000     0.503000000
O    -4.375000000     1.248000000     1.039000000
O    -3.259000000     2.786000000     0.072000000
O    -5.295000000     4.556000000     0.102000000
H    -4.544000000     4.020000000     0.355000000
H    -5.004000000     5.021000000    -0.683000000
O    -3.305000000     7.114000000     2.781000000
H    -3.177000000     6.194000000     2.549000000
H    -2.569000000     7.569000000     2.372000000
O    -3.583000000     1.322000000     6.559000000
H    -3.499000000     0.442000000     6.925000000
H    -4.491000000     1.372000000     6.262000000
O    -5.486000000     8.254000000     1.625000000
H    -4.864000000     7.863000000     2.239000000
H    -5.875000000     7.507000000     1.170000000
O    -6.253000000     0.950000000     6.340000000
H    -6.321000000     0.385000000     5.570000000
H    -7.045000000     1.487000000     6.314000000
O    -6.782000000     5.892000000     3.665000000
H    -6.513000000     5.063000000     3.269000000
H    -6.956000000     6.468000000     2.921000000
O    -2.702000000     4.193000000     2.512000000
H    -2.570000000     3.638000000     3.281000000
H    -2.398000000     3.660000000     1.778000000
O    -1.987000000     2.387000000     4.288000000
H    -2.474000000     1.733000000     3.788000000
H    -2.119000000     2.138000000     5.202000000
O    -9.480000000    -0.359000000    -2.079000000
H    -8.820000000    -0.822000000    -2.595000000
H    -9.196000000     0.555000000    -2.090000000
O    -8.348000000    -1.068000000     1.772000000
H    -7.944000000    -0.503000000     2.431000000
H    -9.141000000    -0.602000000     1.510000000
O    -7.106000000     1.734000000     0.485000000
H    -6.233000000     1.357000000     0.373000000
H    -6.950000000     2.580000000     0.904000000
O    -3.841000000     0.498000000     3.667000000
H    -4.025000000     0.460000000     2.729000000
H    -3.879000000    -0.414000000     3.956000000
O    -5.950000000    -1.887000000     4.557000000
H    -6.634000000    -2.553000000     4.487000000
H    -5.793000000    -1.611000000     3.654000000
O    -8.335000000     2.074000000    -1.990000000
H    -9.152000000     2.572000000    -1.963000000
H    -7.868000000     2.338000000    -1.197000000
O    -5.480000000    -1.083000000     1.922000000
H    -6.343000000    -1.106000000     1.508000000
H    -5.088000000    -0.265000000     1.614000000
O    -7.476000000     6.400000000     0.537000000
H    -6.925000000     5.790000000     0.047000000
H    -8.293000000     6.439000000     0.039000000
O    -7.218000000     1.350000000     3.539000000
H    -7.960000000     1.922000000     3.344000000
H    -6.454000000     1.835000000     3.228000000
O    -1.682000000     5.740000000     5.885000000
H    -2.508000000     6.024000000     5.495000000
H    -1.133000000     5.504000000     5.138000000
O    -5.443000000     3.154000000     2.613000000
H    -5.199000000     3.802000000     1.952000000
H    -4.844000000     2.422000000     2.464000000
