215
-1466.09728
C    -2.924000000     1.432000000    -4.456000000
H    -2.928000000     0.514000000    -5.038000000
C    -1.736000000     1.976000000    -3.987000000
C    -1.846000000     3.204000000    -3.380000000
H    -0.968000000     3.763000000    -3.066000000
C    -0.366000000     1.254000000    -4.124000000
O    -0.411000000     0.173000000    -5.059000000
H    -0.112000000     0.846000000    -3.135000000
O     0.710000000     2.276000000    -4.391000000
C     1.925000000     2.089000000    -3.871000000
C     2.238000000     2.851000000    -2.819000000
H     1.556000000     3.632000000    -2.493000000
C     3.431000000     2.678000000    -2.088000000
O     3.551000000     3.524000000    -1.007000000
C     4.246000000     1.516000000    -2.282000000
C     5.343000000     1.212000000    -1.320000000
H     6.117000000     0.617000000    -1.809000000
C     4.954000000     0.568000000    -0.014000000
C     5.042000000    -0.844000000     0.040000000
H     5.276000000    -1.382000000    -0.875000000
H     5.829000000     2.173000000    -1.136000000
C     3.925000000     0.719000000    -3.383000000
H     4.498000000    -0.163000000    -3.656000000
C     2.807000000     1.039000000    -4.175000000
C     2.450000000    -0.086000000    -5.229000000
H     3.407000000    -0.479000000    -5.577000000
H     1.874000000     0.406000000    -6.015000000
C     1.518000000    -1.159000000    -4.669000000
C     2.072000000    -2.296000000    -4.107000000
H     3.143000000    -2.474000000    -4.066000000
C     0.147000000    -0.946000000    -4.554000000
C    -0.655000000    -1.818000000    -3.955000000
H    -1.738000000    -1.730000000    -3.935000000
C    -0.102000000    -2.929000000    -3.284000000
O    -1.023000000    -3.727000000    -2.655000000
C    -0.979000000    -3.712000000    -1.225000000
C    -2.360000000    -3.763000000    -0.613000000
C    -2.707000000    -4.417000000     0.575000000
H    -1.901000000    -4.998000000     1.015000000
C    -3.282000000    -2.958000000    -1.259000000
H    -3.050000000    -2.425000000    -2.177000000
O    -0.204000000    -4.821000000    -0.776000000
H    -0.528000000    -2.765000000    -0.891000000
C     1.210000000    -3.179000000    -3.347000000
C     1.893000000    -4.367000000    -2.634000000
H     2.894000000    -4.541000000    -3.035000000
H     1.280000000    -5.228000000    -2.909000000
C     2.073000000    -4.236000000    -1.182000000
C     3.329000000    -3.776000000    -0.739000000
H     4.097000000    -3.393000000    -1.406000000
C     1.021000000    -4.470000000    -0.326000000
C     1.187000000    -4.175000000     1.090000000
H     0.316000000    -4.392000000     1.704000000
C     2.430000000    -3.706000000     1.526000000
O     2.533000000    -3.462000000     2.861000000
C     2.395000000    -2.082000000     3.181000000
C     1.313000000    -1.871000000     4.206000000
C     0.395000000    -2.886000000     4.508000000
H     0.597000000    -3.862000000     4.074000000
C     1.172000000    -0.675000000     4.835000000
H     1.864000000     0.108000000     4.537000000
O     3.717000000    -1.460000000     3.488000000
H     1.949000000    -1.665000000     2.266000000
C     3.506000000    -3.501000000     0.621000000
C     4.842000000    -3.006000000     1.129000000
H     5.609000000    -3.277000000     0.401000000
H     5.119000000    -3.394000000     2.111000000
C     4.725000000    -1.511000000     1.224000000
C     4.261000000    -0.829000000     2.379000000
C     4.047000000     0.593000000     2.306000000
H     3.598000000     1.147000000     3.127000000
C     4.412000000     1.285000000     1.102000000
O     4.167000000     2.682000000     1.055000000
C     3.007000000     3.109000000     0.246000000
H     2.313000000     2.267000000     0.107000000
C     2.167000000     4.192000000     0.944000000
C     1.422000000     5.159000000     0.268000000
H     1.520000000     5.217000000    -0.813000000
C     1.953000000     4.130000000     2.299000000
H     2.354000000     3.274000000     2.835000000
C     1.111000000     5.003000000     2.955000000
O     1.064000000     5.020000000     4.305000000
C     0.433000000     5.966000000     2.265000000
H    -0.186000000     6.629000000     2.864000000
C     0.686000000     6.148000000     0.937000000
O     0.109000000     7.244000000     0.246000000
C    -0.721000000     7.135000000    -0.875000000
C    -1.454000000     5.993000000    -1.280000000
H    -1.573000000     5.019000000    -0.812000000
C    -0.806000000     8.275000000    -1.676000000
H    -0.157000000     9.121000000    -1.470000000
C    -1.548000000     8.338000000    -2.848000000
H    -1.532000000     9.208000000    -3.500000000
C    -2.219000000     7.151000000    -3.241000000
H    -2.797000000     7.157000000    -4.161000000
C    -2.160000000     5.995000000    -2.484000000
O    -3.186000000     5.065000000    -2.740000000
C    -3.067000000     3.790000000    -3.155000000
C    -4.276000000     3.181000000    -3.489000000
H    -5.209000000     3.739000000    -3.496000000
C    -4.154000000     2.017000000    -4.195000000
O    -5.249000000     1.378000000    -4.490000000
C    -5.502000000     0.063000000    -4.180000000
C    -5.431000000    -0.432000000    -2.881000000
H    -5.225000000     0.241000000    -2.053000000
C    -5.794000000    -0.800000000    -5.210000000
H    -5.971000000    -0.503000000    -6.240000000
C    -6.106000000    -2.128000000    -4.962000000
H    -6.362000000    -2.841000000    -5.742000000
C    -6.057000000    -2.679000000    -3.653000000
H    -6.292000000    -3.729000000    -3.501000000
C    -5.707000000    -1.787000000    -2.591000000
O    -5.692000000    -2.267000000    -1.332000000
C    -4.641000000    -3.032000000    -0.831000000
C    -4.953000000    -3.688000000     0.348000000
H    -5.982000000    -3.672000000     0.697000000
C    -3.965000000    -4.276000000     1.101000000
O    -4.405000000    -4.946000000     2.217000000
C    -3.636000000    -5.238000000     3.348000000
C    -2.727000000    -4.312000000     3.883000000
H    -2.762000000    -3.302000000     3.481000000
C    -3.841000000    -6.428000000     4.047000000
H    -4.678000000    -7.062000000     3.764000000
C    -3.107000000    -6.834000000     5.160000000
H    -3.358000000    -7.771000000     5.651000000
C    -2.230000000    -5.879000000     5.763000000
H    -1.761000000    -6.124000000     6.713000000
C    -2.086000000    -4.604000000     5.113000000
O    -1.422000000    -3.678000000     5.872000000
C    -0.682000000    -2.645000000     5.389000000
C    -0.822000000    -1.424000000     5.969000000
H    -1.621000000    -1.304000000     6.696000000
C     0.087000000    -0.406000000     5.644000000
O    -0.153000000     0.812000000     6.201000000
C     0.778000000     1.910000000     6.171000000
C     1.752000000     2.185000000     7.140000000
H     1.678000000     1.510000000     7.989000000
C     2.572000000     3.251000000     7.100000000
H     3.254000000     3.389000000     7.935000000
C     2.303000000     4.261000000     6.147000000
H     2.834000000     5.207000000     6.074000000
C     1.304000000     4.021000000     5.171000000
C     0.566000000     2.882000000     5.196000000
H    -0.134000000     2.699000000     4.385000000
C    -1.911000000     2.024000000    -0.179000000
H    -2.060000000     3.043000000    -0.526000000
C    -0.611000000     1.499000000    -0.060000000
H     0.273000000     1.997000000    -0.451000000
C    -0.395000000     0.194000000     0.405000000
H     0.628000000    -0.315000000     0.433000000
C    -1.487000000    -0.569000000     0.753000000
H    -1.241000000    -1.584000000     1.054000000
C    -2.800000000    -0.081000000     0.693000000
H    -3.614000000    -0.730000000     1.009000000
C    -3.021000000     1.242000000     0.195000000
C    -4.479000000     1.747000000     0.165000000
O    -5.355000000     0.918000000     0.252000000
O    -4.724000000     2.955000000     0.090000000
O    -6.273000000     4.774000000    -1.317000000
H    -5.896000000     4.132000000    -0.715000000
H    -5.517000000     5.179000000    -1.740000000
O    -3.773000000     3.747000000     5.825000000
H    -3.427000000     3.111000000     6.451000000
H    -4.000000000     3.226000000     5.055000000
O    -3.241000000     7.350000000     2.328000000
H    -3.202000000     6.415000000     2.530000000
H    -2.325000000     7.629000000     2.307000000
O    -7.283000000     0.521000000     5.640000000
H    -7.576000000     0.526000000     4.728000000
H    -8.031000000     0.858000000     6.133000000
O    -6.676000000     4.908000000     2.555000000
H    -6.402000000     4.052000000     2.224000000
H    -6.908000000     5.404000000     1.770000000
O    -3.592000000     4.622000000     1.996000000
H    -3.811000000     3.899000000     2.584000000
H    -4.054000000     4.417000000     1.183000000
O    -4.318000000     2.461000000     3.493000000
H    -3.831000000     1.678000000     3.235000000
H    -5.232000000     2.177000000     3.515000000
O    -8.225000000     1.759000000    -4.343000000
H    -7.385000000     1.650000000    -4.788000000
H    -7.991000000     1.948000000    -3.434000000
O    -7.728000000     1.828000000    -1.192000000
H    -6.828000000     1.802000000    -0.865000000
H    -8.254000000     2.062000000    -0.427000000
O    -4.614000000    -0.375000000     3.156000000
H    -3.806000000    -0.758000000     2.813000000
H    -5.308000000    -0.766000000     2.624000000
O   -10.209000000     0.734000000    -2.127000000
H   -10.610000000     1.597000000    -2.027000000
H    -9.278000000     0.915000000    -2.253000000
O    -9.097000000     4.015000000     3.811000000
H    -8.186000000     4.285000000     3.693000000
H    -9.552000000     4.366000000     3.046000000
O    -9.795000000     2.456000000     1.044000000
H   -10.180000000     3.320000000     1.188000000
H    -8.945000000     2.497000000     1.481000000
O    -6.985000000    -1.011000000     0.829000000
H    -6.978000000    -1.594000000     0.070000000
H    -6.538000000    -0.220000000     0.527000000
O    -7.615000000     6.268000000     0.554000000
H    -7.237000000     5.832000000    -0.209000000
H    -7.909000000     7.117000000     0.224000000
O    -8.266000000     0.044000000     3.040000000
H    -8.142000000    -0.573000000     2.319000000
H    -9.209000000     0.033000000     3.205000000
O    -8.325000000     6.523000000    -2.217000000
H    -9.154000000     6.225000000    -2.592000000
H    -7.888000000     5.721000000    -1.932000000
O    -2.072000000     5.151000000     4.287000000
H    -2.538000000     4.645000000     4.953000000
H    -2.300000000     4.727000000     3.460000000
O    -7.257000000     2.347000000     1.836000000
H    -6.621000000     1.967000000     1.230000000
H    -7.593000000     1.599000000     2.331000000
