215
-1429.64012
C    -3.373000000     0.511000000    -3.960000000
H    -3.860000000    -0.460000000    -3.974000000
C    -1.941000000     0.572000000    -4.131000000
C    -1.316000000     1.841000000    -4.019000000
H    -0.233000000     1.933000000    -4.058000000
C    -1.111000000    -0.707000000    -4.125000000
O    -1.922000000    -1.927000000    -4.301000000
H    -0.748000000    -0.735000000    -3.087000000
O    -0.052000000    -0.655000000    -5.082000000
C     1.181000000    -1.045000000    -4.509000000
C     2.106000000    -0.037000000    -4.250000000
H     1.841000000     0.997000000    -4.459000000
C     3.336000000    -0.330000000    -3.590000000
O     4.027000000     0.742000000    -3.119000000
C     3.591000000    -1.628000000    -3.173000000
C     4.776000000    -2.025000000    -2.307000000
H     5.039000000    -3.059000000    -2.541000000
C     4.518000000    -1.756000000    -0.783000000
C     4.255000000    -2.835000000     0.038000000
H     4.204000000    -3.835000000    -0.384000000
H     5.686000000    -1.430000000    -2.414000000
C     2.743000000    -2.648000000    -3.522000000
H     2.932000000    -3.700000000    -3.325000000
C     1.548000000    -2.327000000    -4.204000000
C     0.551000000    -3.504000000    -4.392000000
H     1.074000000    -4.456000000    -4.504000000
H    -0.019000000    -3.386000000    -5.316000000
C    -0.519000000    -3.594000000    -3.280000000
C    -0.317000000    -4.446000000    -2.198000000
H     0.462000000    -5.204000000    -2.199000000
C    -1.724000000    -2.865000000    -3.347000000
C    -2.649000000    -2.926000000    -2.310000000
H    -3.513000000    -2.269000000    -2.375000000
C    -2.413000000    -3.712000000    -1.202000000
O    -3.275000000    -3.617000000    -0.175000000
C    -2.906000000    -2.906000000     0.992000000
C    -4.073000000    -2.029000000     1.551000000
C    -3.885000000    -1.429000000     2.803000000
H    -2.998000000    -1.524000000     3.423000000
C    -5.172000000    -1.815000000     0.811000000
H    -5.244000000    -2.320000000    -0.149000000
O    -2.306000000    -3.734000000     2.031000000
H    -2.094000000    -2.251000000     0.644000000
C    -1.248000000    -4.525000000    -1.129000000
C    -1.004000000    -5.417000000     0.021000000
H    -0.447000000    -6.283000000    -0.341000000
H    -1.926000000    -5.849000000     0.417000000
C    -0.259000000    -4.601000000     1.094000000
C     1.183000000    -4.659000000     1.127000000
H     1.688000000    -5.344000000     0.451000000
C    -0.960000000    -3.925000000     2.125000000
C    -0.230000000    -3.258000000     3.044000000
H    -0.824000000    -2.742000000     3.794000000
C     1.118000000    -3.159000000     2.995000000
O     1.720000000    -2.433000000     4.008000000
C     2.130000000    -1.129000000     3.531000000
C     1.825000000     0.012000000     4.492000000
C     0.755000000    -0.186000000     5.338000000
H     0.070000000    -1.030000000     5.333000000
C     2.479000000     1.268000000     4.434000000
H     3.283000000     1.347000000     3.706000000
O     3.509000000    -1.202000000     3.163000000
H     1.676000000    -0.884000000     2.559000000
C     1.843000000    -3.951000000     2.074000000
C     3.381000000    -3.869000000     2.133000000
H     3.669000000    -4.830000000     1.703000000
H     3.781000000    -3.867000000     3.149000000
C     3.933000000    -2.638000000     1.362000000
C     3.936000000    -1.381000000     1.911000000
C     4.151000000    -0.284000000     1.089000000
H     4.101000000     0.729000000     1.478000000
C     4.509000000    -0.524000000    -0.198000000
O     4.793000000     0.556000000    -0.948000000
C     3.824000000     1.191000000    -1.751000000
H     2.843000000     0.757000000    -1.508000000
C     3.762000000     2.733000000    -1.631000000
C     3.553000000     3.519000000    -2.748000000
H     3.388000000     3.054000000    -3.716000000
C     3.980000000     3.394000000    -0.425000000
H     4.278000000     2.745000000     0.394000000
C     3.906000000     4.793000000    -0.296000000
O     3.913000000     5.396000000     0.959000000
C     3.749000000     5.527000000    -1.425000000
H     3.758000000     6.606000000    -1.290000000
C     3.505000000     4.877000000    -2.627000000
O     3.155000000     5.600000000    -3.739000000
C     2.050000000     5.171000000    -4.356000000
C     0.862000000     4.906000000    -3.650000000
H     0.748000000     4.962000000    -2.570000000
C     2.115000000     4.989000000    -5.738000000
H     3.024000000     5.333000000    -6.225000000
C     0.986000000     4.541000000    -6.397000000
H     1.018000000     4.563000000    -7.484000000
C    -0.149000000     4.239000000    -5.687000000
H    -1.004000000     3.909000000    -6.271000000
C    -0.288000000     4.508000000    -4.323000000
O    -1.422000000     4.237000000    -3.641000000
C    -2.038000000     3.026000000    -3.875000000
C    -3.422000000     2.914000000    -3.758000000
H    -4.033000000     3.771000000    -3.488000000
C    -4.096000000     1.672000000    -3.645000000
O    -5.444000000     1.617000000    -3.290000000
C    -6.131000000     0.541000000    -2.800000000
C    -6.210000000     0.344000000    -1.417000000
H    -5.438000000     0.805000000    -0.806000000
C    -6.821000000    -0.309000000    -3.698000000
H    -6.671000000    -0.160000000    -4.764000000
C    -7.783000000    -1.224000000    -3.257000000
H    -8.341000000    -1.863000000    -3.936000000
C    -7.973000000    -1.316000000    -1.895000000
H    -8.653000000    -2.091000000    -1.551000000
C    -7.142000000    -0.618000000    -0.994000000
O    -7.260000000    -0.777000000     0.383000000
C    -6.144000000    -0.932000000     1.135000000
C    -6.025000000    -0.300000000     2.426000000
H    -6.756000000     0.442000000     2.738000000
C    -4.964000000    -0.630000000     3.270000000
O    -4.814000000     0.046000000     4.472000000
C    -3.985000000    -0.357000000     5.493000000
C    -2.771000000     0.283000000     5.601000000
H    -2.501000000     1.077000000     4.909000000
C    -4.419000000    -1.338000000     6.418000000
H    -5.421000000    -1.760000000     6.412000000
C    -3.584000000    -1.645000000     7.440000000
H    -3.907000000    -2.352000000     8.201000000
C    -2.380000000    -0.927000000     7.606000000
H    -1.664000000    -1.312000000     8.328000000
C    -1.962000000     0.026000000     6.740000000
O    -0.745000000     0.665000000     7.063000000
C     0.340000000     0.824000000     6.175000000
C     0.969000000     2.093000000     6.150000000
H     0.612000000     2.923000000     6.755000000
C     2.063000000     2.259000000     5.279000000
O     2.655000000     3.541000000     5.220000000
C     3.694000000     3.952000000     4.303000000
C     4.879000000     4.338000000     4.834000000
H     5.057000000     4.264000000     5.904000000
C     5.896000000     4.825000000     3.984000000
H     6.889000000     5.047000000     4.366000000
C     5.593000000     5.048000000     2.619000000
H     6.341000000     5.603000000     2.058000000
C     4.342000000     4.767000000     2.070000000
C     3.431000000     4.223000000     2.936000000
H     2.407000000     4.002000000     2.645000000
C    -0.726000000     1.465000000     2.203000000
H    -1.270000000     1.906000000     3.035000000
C    -0.622000000     0.101000000     2.061000000
H    -1.071000000    -0.615000000     2.745000000
C     0.073000000    -0.393000000     0.937000000
H     0.149000000    -1.448000000     0.847000000
C     0.662000000     0.507000000     0.068000000
H     1.103000000     0.095000000    -0.836000000
C     0.515000000     1.888000000     0.178000000
H     1.047000000     2.473000000    -0.568000000
C    -0.189000000     2.373000000     1.294000000
C    -0.437000000     3.888000000     1.490000000
O     0.006000000     4.657000000     0.680000000
O    -1.351000000     4.279000000     2.154000000
O    -2.243000000     6.878000000     1.132000000
H    -2.461000000     6.963000000     2.061000000
H    -1.577000000     6.192000000     1.104000000
O    -2.586000000     7.601000000     3.910000000
H    -2.202000000     8.476000000     3.842000000
H    -3.290000000     7.699000000     4.551000000
O     0.523000000     9.654000000     1.798000000
H     0.868000000     9.570000000     2.687000000
H     0.364000000     8.753000000     1.517000000
O    -2.392000000     7.203000000    -1.555000000
H    -2.177000000     6.316000000    -1.842000000
H    -2.092000000     7.241000000    -0.647000000
O    -6.546000000     3.918000000    -2.144000000
H    -6.038000000     3.106000000    -2.157000000
H    -6.030000000     4.514000000    -1.602000000
O     3.302000000     7.622000000     2.357000000
H     3.586000000     6.709000000     2.310000000
H     3.497000000     7.888000000     3.256000000
O    -0.872000000     5.998000000     7.083000000
H    -0.673000000     5.938000000     6.149000000
H    -0.016000000     6.027000000     7.509000000
O    -5.619000000     6.004000000     0.578000000
H    -4.675000000     5.889000000     0.470000000
H    -5.926000000     5.163000000     0.917000000
O    -2.717000000    10.014000000     1.183000000
H    -3.118000000    10.481000000     1.916000000
H    -2.132000000     9.379000000     1.596000000
O     1.149000000     7.766000000     5.102000000
H     0.615000000     7.025000000     4.815000000
H     2.048000000     7.504000000     4.904000000
O    -0.548000000     5.835000000     4.238000000
H    -0.459000000     5.311000000     3.442000000
H    -1.360000000     6.325000000     4.113000000
O     1.029000000     6.952000000     0.747000000
H     0.710000000     6.050000000     0.740000000
H     1.911000000     6.892000000     1.114000000
O    -6.082000000     2.825000000     2.994000000
H    -6.017000000     1.916000000     3.286000000
H    -5.496000000     3.307000000     3.577000000
O     0.237000000     8.149000000    -1.632000000
H     0.238000000     7.526000000    -0.905000000
H    -0.668000000     8.458000000    -1.680000000
O    -4.919000000     3.249000000     0.223000000
H    -4.084000000     3.569000000    -0.118000000
H    -4.703000000     2.880000000     1.079000000
O    -5.671000000     4.003000000     6.427000000
H    -4.899000000     4.518000000     6.191000000
H    -5.329000000     3.291000000     6.967000000
O    -3.385000000     5.652000000     6.488000000
H    -2.475000000     5.788000000     6.752000000
H    -3.746000000     6.534000000     6.410000000
O    -2.402000000     4.069000000    -0.604000000
H    -2.045000000     4.490000000     0.178000000
H    -1.632000000     3.826000000    -1.118000000
O    -3.674000000     4.279000000     3.780000000
H    -2.845000000     4.249000000     3.304000000
H    -3.440000000     4.606000000     4.649000000
