215
-1467.31403
C    -2.510000000     1.643000000    -4.506000000
H    -2.626000000     0.595000000    -4.770000000
C    -1.300000000     2.202000000    -4.089000000
C    -1.298000000     3.578000000    -3.807000000
H    -0.392000000     4.096000000    -3.505000000
C    -0.066000000     1.385000000    -3.912000000
O    -0.077000000     0.327000000    -4.849000000
H    -0.193000000     0.918000000    -2.924000000
O     1.104000000     2.234000000    -4.122000000
C     2.317000000     1.950000000    -3.374000000
C     2.526000000     2.904000000    -2.376000000
H     1.932000000     3.814000000    -2.349000000
C     3.622000000     2.711000000    -1.530000000
O     3.793000000     3.547000000    -0.441000000
C     4.460000000     1.548000000    -1.683000000
C     5.578000000     1.211000000    -0.657000000
H     6.374000000     0.629000000    -1.126000000
C     4.906000000     0.451000000     0.437000000
C     4.848000000    -0.961000000     0.438000000
H     5.135000000    -1.495000000    -0.464000000
H     6.017000000     2.121000000    -0.243000000
C     4.287000000     0.685000000    -2.768000000
H     5.039000000    -0.048000000    -3.049000000
C     3.181000000     0.852000000    -3.547000000
C     2.776000000    -0.126000000    -4.669000000
H     3.653000000    -0.716000000    -4.945000000
H     2.368000000     0.492000000    -5.472000000
C     1.711000000    -1.120000000    -4.298000000
C     2.026000000    -2.333000000    -3.807000000
H     3.077000000    -2.583000000    -3.686000000
C     0.344000000    -0.843000000    -4.484000000
C    -0.634000000    -1.709000000    -4.021000000
H    -1.628000000    -1.269000000    -4.022000000
C    -0.251000000    -2.916000000    -3.484000000
O    -1.180000000    -3.693000000    -2.851000000
C    -1.312000000    -3.528000000    -1.431000000
C    -2.765000000    -3.382000000    -1.031000000
C    -3.185000000    -3.658000000     0.318000000
H    -2.581000000    -4.129000000     1.090000000
C    -3.665000000    -2.738000000    -1.904000000
H    -3.383000000    -2.390000000    -2.895000000
O    -0.711000000    -4.612000000    -0.756000000
H    -0.869000000    -2.539000000    -1.241000000
C     1.081000000    -3.238000000    -3.417000000
C     1.499000000    -4.569000000    -2.749000000
H     2.375000000    -5.006000000    -3.233000000
H     0.661000000    -5.264000000    -2.831000000
C     1.663000000    -4.308000000    -1.305000000
C     2.933000000    -3.968000000    -0.778000000
H     3.766000000    -3.858000000    -1.468000000
C     0.571000000    -4.320000000    -0.386000000
C     0.746000000    -4.225000000     0.979000000
H    -0.067000000    -4.371000000     1.685000000
C     1.942000000    -3.851000000     1.466000000
O     2.001000000    -3.629000000     2.801000000
C     1.894000000    -2.259000000     3.217000000
C     0.883000000    -2.025000000     4.253000000
C    -0.190000000    -2.942000000     4.540000000
H    -0.123000000    -3.834000000     3.923000000
C     0.849000000    -0.763000000     4.943000000
H     1.683000000    -0.115000000     4.689000000
O     3.182000000    -1.694000000     3.550000000
H     1.600000000    -1.704000000     2.313000000
C     3.017000000    -3.698000000     0.588000000
C     4.340000000    -3.253000000     1.258000000
H     5.147000000    -3.601000000     0.610000000
H     4.498000000    -3.746000000     2.219000000
C     4.440000000    -1.683000000     1.508000000
C     3.870000000    -0.986000000     2.573000000
C     3.802000000     0.441000000     2.619000000
H     3.329000000     0.870000000     3.498000000
C     4.283000000     1.104000000     1.547000000
O     4.173000000     2.436000000     1.638000000
C     3.227000000     3.011000000     0.759000000
H     2.504000000     2.247000000     0.437000000
C     2.380000000     4.030000000     1.554000000
C     1.235000000     4.639000000     0.976000000
H     1.151000000     4.485000000    -0.097000000
C     2.377000000     4.112000000     2.990000000
H     3.256000000     3.666000000     3.449000000
C     1.443000000     4.900000000     3.700000000
O     1.465000000     4.900000000     5.105000000
C     0.443000000     5.580000000     3.047000000
H    -0.385000000     6.092000000     3.531000000
C     0.351000000     5.462000000     1.685000000
O    -0.761000000     5.963000000     1.088000000
C    -0.791000000     6.291000000    -0.286000000
C    -1.688000000     5.753000000    -1.196000000
H    -2.487000000     5.095000000    -0.865000000
C     0.155000000     7.264000000    -0.708000000
H     0.986000000     7.467000000    -0.038000000
C     0.211000000     7.639000000    -2.053000000
H     0.933000000     8.370000000    -2.408000000
C    -0.631000000     7.082000000    -3.014000000
H    -0.644000000     7.499000000    -4.018000000
C    -1.602000000     6.107000000    -2.552000000
O    -2.552000000     5.615000000    -3.486000000
C    -2.520000000     4.286000000    -3.834000000
C    -3.688000000     3.677000000    -4.163000000
H    -4.640000000     4.201000000    -4.133000000
C    -3.675000000     2.362000000    -4.573000000
O    -4.817000000     1.799000000    -5.099000000
C    -5.172000000     0.523000000    -4.984000000
C    -5.184000000    -0.172000000    -3.746000000
H    -4.769000000     0.422000000    -2.936000000
C    -5.600000000    -0.143000000    -6.116000000
H    -5.650000000     0.290000000    -7.111000000
C    -6.100000000    -1.413000000    -6.032000000
H    -6.313000000    -1.846000000    -7.007000000
C    -6.203000000    -2.107000000    -4.842000000
H    -6.570000000    -3.129000000    -4.795000000
C    -5.692000000    -1.462000000    -3.680000000
O    -5.947000000    -1.966000000    -2.356000000
C    -4.987000000    -2.478000000    -1.472000000
C    -5.457000000    -2.945000000    -0.219000000
H    -6.539000000    -2.950000000    -0.116000000
C    -4.537000000    -3.377000000     0.664000000
O    -5.110000000    -3.685000000     1.885000000
C    -4.375000000    -4.461000000     2.784000000
C    -3.500000000    -3.774000000     3.653000000
H    -3.461000000    -2.688000000     3.692000000
C    -4.396000000    -5.815000000     2.886000000
H    -4.872000000    -6.375000000     2.085000000
C    -3.641000000    -6.425000000     3.912000000
H    -3.665000000    -7.509000000     3.980000000
C    -2.841000000    -5.681000000     4.774000000
H    -2.225000000    -6.172000000     5.524000000
C    -2.699000000    -4.346000000     4.669000000
O    -2.100000000    -3.605000000     5.734000000
C    -1.189000000    -2.637000000     5.490000000
C    -1.114000000    -1.435000000     6.128000000
H    -1.918000000    -1.220000000     6.828000000
C    -0.127000000    -0.496000000     5.846000000
O    -0.221000000     0.637000000     6.568000000
C     0.798000000     1.546000000     6.543000000
C     1.989000000     1.238000000     7.140000000
H     2.099000000     0.340000000     7.742000000
C     3.067000000     2.115000000     6.875000000
H     4.064000000     1.850000000     7.220000000
C     2.919000000     3.329000000     6.277000000
H     3.791000000     3.959000000     6.121000000
C     1.679000000     3.693000000     5.803000000
C     0.580000000     2.810000000     5.950000000
H    -0.355000000     2.986000000     5.423000000
C    -0.963000000     1.668000000    -0.251000000
H    -1.033000000     2.495000000    -0.952000000
C     0.222000000     0.925000000    -0.215000000
H     0.946000000     1.249000000    -0.958000000
C     0.347000000    -0.267000000     0.462000000
H     1.256000000    -0.866000000     0.334000000
C    -0.752000000    -0.632000000     1.210000000
H    -0.596000000    -1.560000000     1.753000000
C    -1.946000000     0.074000000     1.250000000
H    -2.808000000    -0.337000000     1.770000000
C    -2.069000000     1.270000000     0.550000000
C    -3.387000000     2.013000000     0.595000000
O    -4.316000000     1.516000000     1.196000000
O    -3.490000000     3.140000000     0.083000000
O    -6.958000000     4.774000000     1.780000000
H    -6.859000000     3.855000000     2.029000000
H    -6.067000000     5.123000000     1.791000000
O    -6.084000000     2.047000000     4.908000000
H    -5.289000000     2.574000000     4.982000000
H    -6.486000000     2.095000000     5.775000000
O    -4.225000000     6.622000000     4.657000000
H    -4.440000000     5.707000000     4.478000000
H    -3.795000000     6.604000000     5.512000000
O    -7.990000000     4.848000000    -1.890000000
H    -7.714000000     5.756000000    -2.010000000
H    -7.178000000     4.372000000    -1.714000000
O    -9.302000000     5.681000000     0.751000000
H    -8.377000000     5.706000000     0.999000000
H    -9.310000000     5.247000000    -0.102000000
O    -6.111000000     0.379000000    -0.382000000
H    -5.484000000     0.637000000     0.295000000
H    -5.956000000    -0.558000000    -0.506000000
O    -3.958000000     3.640000000     3.981000000
H    -4.034000000     3.949000000     3.078000000
H    -3.297000000     2.949000000     3.942000000
O    -1.454000000     2.217000000     3.169000000
H    -1.670000000     1.645000000     2.433000000
H    -0.640000000     2.648000000     2.907000000
O    -9.534000000     3.336000000     2.608000000
H    -8.923000000     2.600000000     2.569000000
H    -9.398000000     3.805000000     1.784000000
O    -4.762000000    -0.070000000     3.341000000
H    -4.599000000     0.597000000     2.673000000
H    -5.267000000     0.384000000     4.015000000
O    -6.000000000     2.925000000    -1.209000000
H    -5.126000000     3.085000000    -0.853000000
H    -6.217000000     2.038000000    -0.921000000
O    -3.109000000     0.920000000     5.257000000
H    -3.604000000     0.368000000     4.652000000
H    -2.245000000     1.005000000     4.854000000
O    -8.604000000    -0.075000000     2.218000000
H    -8.751000000    -0.396000000     1.328000000
H    -7.902000000     0.570000000     2.127000000
O    -6.621000000     2.078000000     2.181000000
H    -5.709000000     2.032000000     1.894000000
H    -6.569000000     2.283000000     3.114000000
O    -6.183000000    -2.222000000     4.443000000
H    -5.790000000    -1.595000000     3.836000000
H    -6.802000000    -2.718000000     3.908000000
O    -8.588000000     1.691000000    -1.924000000
H    -7.878000000     1.189000000    -1.525000000
H    -8.365000000     2.604000000    -1.747000000
O    -7.473000000     4.138000000    -4.505000000
H    -7.532000000     4.240000000    -3.556000000
H    -7.545000000     3.194000000    -4.650000000
O    -3.698000000     7.949000000    -0.083000000
H    -4.060000000     8.207000000    -0.930000000
H    -4.449000000     7.953000000     0.510000000
O    -4.304000000     5.107000000     1.589000000
H    -3.946000000     5.965000000     1.360000000
H    -3.842000000     4.494000000     1.017000000
