215
-1453.31743
C    -2.225000000     1.354000000    -4.420000000
H    -2.243000000     0.288000000    -4.629000000
C    -1.000000000     1.909000000    -4.105000000
C    -1.026000000     3.292000000    -3.743000000
H    -0.127000000     3.901000000    -3.679000000
C     0.280000000     1.115000000    -4.143000000
O     0.266000000     0.062000000    -5.122000000
H     0.390000000     0.765000000    -3.106000000
O     1.422000000     2.021000000    -4.332000000
C     2.453000000     1.695000000    -3.463000000
C     2.717000000     2.608000000    -2.447000000
H     2.167000000     3.545000000    -2.424000000
C     3.526000000     2.328000000    -1.361000000
O     3.666000000     3.237000000    -0.324000000
C     4.407000000     1.210000000    -1.498000000
C     5.503000000     0.954000000    -0.486000000
H     6.272000000     0.385000000    -1.012000000
C     4.972000000     0.206000000     0.646000000
C     4.845000000    -1.189000000     0.585000000
H     5.207000000    -1.793000000    -0.243000000
H     5.935000000     1.909000000    -0.181000000
C     4.226000000     0.376000000    -2.590000000
H     4.894000000    -0.470000000    -2.734000000
C     3.235000000     0.526000000    -3.537000000
C     3.096000000    -0.563000000    -4.658000000
H     4.017000000    -1.101000000    -4.893000000
H     2.812000000    -0.055000000    -5.582000000
C     1.972000000    -1.505000000    -4.267000000
C     2.187000000    -2.701000000    -3.671000000
H     3.222000000    -2.929000000    -3.431000000
C     0.620000000    -1.172000000    -4.606000000
C    -0.430000000    -1.955000000    -4.173000000
H    -1.429000000    -1.529000000    -4.226000000
C    -0.191000000    -3.161000000    -3.506000000
O    -1.283000000    -3.803000000    -3.029000000
C    -1.535000000    -3.714000000    -1.592000000
C    -2.962000000    -3.462000000    -1.254000000
C    -3.397000000    -3.330000000     0.084000000
H    -2.658000000    -3.459000000     0.871000000
C    -3.837000000    -3.118000000    -2.267000000
H    -3.514000000    -3.058000000    -3.303000000
O    -0.933000000    -4.796000000    -0.726000000
H    -1.028000000    -2.809000000    -1.227000000
C     1.119000000    -3.475000000    -3.173000000
C     1.450000000    -4.803000000    -2.493000000
H     2.344000000    -5.314000000    -2.856000000
H     0.605000000    -5.444000000    -2.754000000
C     1.401000000    -4.649000000    -0.981000000
C     2.555000000    -4.226000000    -0.390000000
H     3.451000000    -4.084000000    -0.989000000
C     0.240000000    -4.633000000    -0.177000000
C     0.265000000    -4.419000000     1.153000000
H    -0.705000000    -4.364000000     1.641000000
C     1.488000000    -4.016000000     1.711000000
O     1.383000000    -3.537000000     3.018000000
C     1.478000000    -2.139000000     3.321000000
C     0.541000000    -1.706000000     4.555000000
C    -0.566000000    -2.507000000     4.815000000
H    -0.694000000    -3.455000000     4.299000000
C     0.731000000    -0.536000000     5.266000000
H     1.549000000     0.098000000     4.936000000
O     2.905000000    -1.898000000     3.678000000
H     1.222000000    -1.460000000     2.494000000
C     2.595000000    -3.889000000     0.932000000
C     3.981000000    -3.476000000     1.441000000
H     4.786000000    -3.866000000     0.814000000
H     4.190000000    -3.874000000     2.436000000
C     4.156000000    -1.961000000     1.561000000
C     3.657000000    -1.275000000     2.706000000
C     3.696000000     0.114000000     2.704000000
H     3.191000000     0.692000000     3.474000000
C     4.320000000     0.844000000     1.672000000
O     4.100000000     2.204000000     1.737000000
C     3.054000000     2.742000000     0.912000000
H     2.367000000     1.941000000     0.602000000
C     2.356000000     3.841000000     1.635000000
C     1.648000000     4.817000000     0.822000000
H     1.807000000     4.819000000    -0.253000000
C     2.185000000     3.881000000     3.014000000
H     2.683000000     3.254000000     3.750000000
C     1.365000000     4.877000000     3.588000000
O     1.372000000     5.057000000     4.997000000
C     0.501000000     5.640000000     2.823000000
H    -0.092000000     6.431000000     3.275000000
C     0.663000000     5.621000000     1.423000000
O    -0.141000000     6.473000000     0.713000000
C    -0.194000000     6.559000000    -0.670000000
C    -1.213000000     5.979000000    -1.457000000
H    -1.856000000     5.368000000    -0.829000000
C     0.820000000     7.180000000    -1.373000000
H     1.677000000     7.618000000    -0.867000000
C     0.750000000     7.245000000    -2.752000000
H     1.642000000     7.683000000    -3.191000000
C    -0.330000000     6.773000000    -3.503000000
H    -0.478000000     6.896000000    -4.573000000
C    -1.338000000     6.090000000    -2.838000000
O    -2.269000000     5.439000000    -3.648000000
C    -2.225000000     4.005000000    -3.797000000
C    -3.370000000     3.413000000    -4.238000000
H    -4.228000000     4.061000000    -4.399000000
C    -3.442000000     2.021000000    -4.453000000
O    -4.591000000     1.552000000    -4.895000000
C    -4.964000000     0.265000000    -5.031000000
C    -5.112000000    -0.512000000    -3.874000000
H    -4.893000000    -0.231000000    -2.847000000
C    -5.266000000    -0.173000000    -6.268000000
H    -5.125000000     0.535000000    -7.081000000
C    -5.679000000    -1.514000000    -6.459000000
H    -5.853000000    -1.825000000    -7.486000000
C    -5.964000000    -2.254000000    -5.371000000
H    -6.431000000    -3.228000000    -5.497000000
C    -5.701000000    -1.762000000    -4.020000000
O    -6.070000000    -2.482000000    -2.906000000
C    -5.109000000    -2.733000000    -1.898000000
C    -5.561000000    -2.711000000    -0.587000000
H    -6.518000000    -2.271000000    -0.317000000
C    -4.727000000    -3.003000000     0.409000000
O    -5.086000000    -3.017000000     1.705000000
C    -4.454000000    -3.603000000     2.765000000
C    -3.976000000    -2.850000000     3.794000000
H    -4.058000000    -1.766000000     3.807000000
C    -4.277000000    -5.001000000     2.781000000
H    -4.856000000    -5.529000000     2.029000000
C    -3.647000000    -5.710000000     3.799000000
H    -3.640000000    -6.792000000     3.901000000
C    -3.121000000    -4.967000000     4.825000000
H    -2.673000000    -5.491000000     5.665000000
C    -3.243000000    -3.577000000     4.784000000
O    -2.739000000    -2.855000000     5.881000000
C    -1.549000000    -2.165000000     5.762000000
C    -1.324000000    -1.013000000     6.490000000
H    -2.137000000    -0.641000000     7.107000000
C    -0.221000000    -0.167000000     6.230000000
O    -0.211000000     1.028000000     6.871000000
C     0.791000000     1.975000000     6.724000000
C     1.852000000     1.931000000     7.621000000
H     1.936000000     1.108000000     8.326000000
C     2.873000000     2.894000000     7.489000000
H     3.758000000     2.863000000     8.120000000
C     2.688000000     4.021000000     6.673000000
H     3.383000000     4.836000000     6.486000000
C     1.601000000     4.002000000     5.823000000
C     0.641000000     2.985000000     5.831000000
H    -0.366000000     3.109000000     5.442000000
C    -1.494000000     1.783000000    -0.351000000
H    -1.861000000     2.663000000    -0.873000000
C    -0.233000000     1.304000000    -0.351000000
H     0.485000000     2.009000000    -0.763000000
C     0.122000000     0.090000000     0.222000000
H     1.077000000    -0.252000000     0.150000000
C    -0.853000000    -0.674000000     0.846000000
H    -0.518000000    -1.559000000     1.382000000
C    -2.184000000    -0.159000000     0.923000000
H    -2.934000000    -0.601000000     1.575000000
C    -2.453000000     1.076000000     0.360000000
C    -3.882000000     1.621000000     0.506000000
O    -4.760000000     1.105000000     1.146000000
O    -4.050000000     2.749000000     0.167000000
O    -6.642000000     6.404000000     2.820000000
H    -5.906000000     5.848000000     2.564000000
H    -6.746000000     7.015000000     2.091000000
O    -7.397000000     1.974000000     5.170000000
H    -6.905000000     1.395000000     4.588000000
H    -7.371000000     2.827000000     4.737000000
O    -2.803000000     6.298000000     4.748000000
H    -2.950000000     5.604000000     4.105000000
H    -3.155000000     5.945000000     5.565000000
O    -7.215000000     5.747000000    -0.880000000
H    -6.884000000     6.573000000    -0.528000000
H    -6.438000000     5.305000000    -1.224000000
O    -8.858000000     1.463000000     2.479000000
H    -9.254000000     2.335000000     2.476000000
H    -8.760000000     1.241000000     1.553000000
O    -9.188000000     4.131000000     1.601000000
H    -8.283000000     4.355000000     1.381000000
H    -9.716000000     4.767000000     1.119000000
O    -6.971000000     0.054000000     0.331000000
H    -6.098000000     0.378000000     0.551000000
H    -7.313000000     0.693000000    -0.294000000
O    -3.458000000     4.451000000     2.184000000
H    -3.478000000     4.207000000     1.258000000
H    -2.755000000     3.918000000     2.556000000
O    -1.295000000     2.502000000     3.087000000
H    -1.431000000     1.870000000     2.381000000
H    -1.844000000     2.181000000     3.804000000
O    -5.569000000     0.771000000     3.639000000
H    -4.803000000     1.304000000     3.853000000
H    -5.560000000     0.711000000     2.684000000
O    -5.265000000     4.182000000    -1.870000000
H    -4.930000000     3.546000000    -1.238000000
H    -5.135000000     3.765000000    -2.721000000
O    -8.888000000     2.066000000    -3.542000000
H    -8.388000000     2.392000000    -2.793000000
H    -9.034000000     1.141000000    -3.347000000
O    -3.150000000     2.298000000     5.192000000
H    -3.116000000     3.121000000     5.680000000
H    -3.805000000     1.774000000     5.653000000
O    -7.755000000    -1.719000000     2.202000000
H    -8.391000000    -2.110000000     1.602000000
H    -7.338000000    -1.026000000     1.691000000
O    -5.290000000     1.191000000     6.670000000
H    -5.617000000     0.410000000     7.117000000
H    -5.993000000     1.433000000     6.067000000
O    -6.408000000     3.526000000     1.656000000
H    -5.624000000     3.150000000     1.258000000
H    -6.731000000     2.842000000     2.243000000
O    -6.704000000    -1.519000000     5.514000000
H    -6.680000000    -0.940000000     4.752000000
H    -7.022000000    -2.354000000     5.170000000
O    -7.974000000     2.272000000    -0.986000000
H    -7.145000000     2.749000000    -0.949000000
H    -8.519000000     2.686000000    -0.317000000
O    -3.184000000     7.057000000     2.107000000
H    -3.143000000     7.162000000     3.057000000
H    -3.244000000     6.111000000     1.973000000
