215
-1441.64466
C    -3.082000000     0.876000000    -3.922000000
H    -3.695000000     0.016000000    -3.665000000
C    -1.731000000     0.665000000    -4.030000000
C    -0.927000000     1.706000000    -4.472000000
H     0.148000000     1.565000000    -4.396000000
C    -1.077000000    -0.695000000    -3.728000000
O    -1.918000000    -1.869000000    -4.015000000
H    -0.736000000    -0.590000000    -2.688000000
O     0.103000000    -0.791000000    -4.592000000
C     1.318000000    -1.332000000    -4.156000000
C     2.199000000    -0.357000000    -3.736000000
H     2.108000000     0.712000000    -3.909000000
C     3.347000000    -0.800000000    -3.035000000
O     4.255000000     0.128000000    -2.669000000
C     3.480000000    -2.146000000    -2.620000000
C     4.732000000    -2.496000000    -1.778000000
H     5.049000000    -3.539000000    -1.835000000
C     4.495000000    -2.144000000    -0.258000000
C     3.825000000    -3.120000000     0.527000000
H     3.812000000    -4.132000000     0.132000000
H     5.562000000    -1.923000000    -2.197000000
C     2.512000000    -3.079000000    -3.003000000
H     2.505000000    -4.119000000    -2.687000000
C     1.472000000    -2.669000000    -3.805000000
C     0.325000000    -3.635000000    -4.130000000
H     0.797000000    -4.619000000    -4.120000000
H    -0.098000000    -3.491000000    -5.127000000
C    -0.741000000    -3.702000000    -3.053000000
C    -0.569000000    -4.570000000    -1.986000000
H     0.277000000    -5.246000000    -1.884000000
C    -1.900000000    -2.950000000    -3.144000000
C    -2.841000000    -3.069000000    -2.082000000
H    -3.654000000    -2.349000000    -2.138000000
C    -2.681000000    -3.883000000    -1.034000000
O    -3.607000000    -3.704000000    -0.033000000
C    -3.081000000    -2.721000000     0.954000000
C    -4.214000000    -1.713000000     1.354000000
C    -4.123000000    -1.179000000     2.623000000
H    -3.354000000    -1.426000000     3.351000000
C    -5.086000000    -1.134000000     0.374000000
H    -5.075000000    -1.550000000    -0.631000000
O    -2.657000000    -3.487000000     2.053000000
H    -2.232000000    -2.205000000     0.481000000
C    -1.481000000    -4.599000000    -0.925000000
C    -1.390000000    -5.445000000     0.373000000
H    -0.813000000    -6.366000000     0.271000000
H    -2.393000000    -5.647000000     0.752000000
C    -0.654000000    -4.670000000     1.460000000
C     0.672000000    -4.834000000     1.675000000
H     1.323000000    -5.507000000     1.124000000
C    -1.356000000    -3.726000000     2.233000000
C    -0.707000000    -2.862000000     3.138000000
H    -1.324000000    -2.176000000     3.713000000
C     0.659000000    -3.016000000     3.314000000
O     1.201000000    -2.088000000     4.138000000
C     1.744000000    -0.862000000     3.614000000
C     1.312000000     0.337000000     4.457000000
C     0.368000000     0.167000000     5.451000000
H    -0.099000000    -0.809000000     5.564000000
C     1.829000000     1.621000000     4.111000000
H     2.523000000     1.732000000     3.282000000
O     3.183000000    -0.981000000     3.469000000
H     1.299000000    -0.676000000     2.626000000
C     1.361000000    -4.007000000     2.594000000
C     2.884000000    -3.966000000     2.715000000
H     3.374000000    -4.866000000     2.337000000
H     3.195000000    -3.928000000     3.762000000
C     3.423000000    -2.820000000     1.841000000
C     3.617000000    -1.505000000     2.301000000
C     4.252000000    -0.600000000     1.520000000
H     4.398000000     0.397000000     1.928000000
C     4.668000000    -0.865000000     0.253000000
O     5.050000000     0.210000000    -0.485000000
C     4.124000000     0.763000000    -1.405000000
H     3.133000000     0.534000000    -0.987000000
C     4.171000000     2.302000000    -1.492000000
C     3.922000000     2.911000000    -2.672000000
H     3.719000000     2.313000000    -3.557000000
C     4.356000000     3.025000000    -0.316000000
H     4.490000000     2.449000000     0.595000000
C     4.284000000     4.406000000    -0.322000000
O     4.522000000     5.090000000     0.860000000
C     3.994000000     5.033000000    -1.496000000
H     3.711000000     6.082000000    -1.462000000
C     3.830000000     4.310000000    -2.674000000
O     3.556000000     5.048000000    -3.745000000
C     2.810000000     4.506000000    -4.817000000
C     1.456000000     4.599000000    -4.681000000
H     1.016000000     5.126000000    -3.838000000
C     3.394000000     3.688000000    -5.757000000
H     4.472000000     3.555000000    -5.711000000
C     2.553000000     3.013000000    -6.664000000
H     3.104000000     2.403000000    -7.375000000
C     1.143000000     3.170000000    -6.570000000
H     0.506000000     2.627000000    -7.263000000
C     0.604000000     3.890000000    -5.511000000
O    -0.773000000     3.965000000    -5.235000000
C    -1.506000000     2.926000000    -4.843000000
C    -2.876000000     3.144000000    -4.729000000
H    -3.314000000     4.109000000    -4.975000000
C    -3.680000000     2.130000000    -4.231000000
O    -5.005000000     2.311000000    -3.827000000
C    -5.840000000     1.322000000    -3.325000000
C    -6.066000000     1.314000000    -1.962000000
H    -5.612000000     2.046000000    -1.300000000
C    -6.517000000     0.365000000    -4.090000000
H    -6.298000000     0.451000000    -5.151000000
C    -7.393000000    -0.560000000    -3.506000000
H    -7.824000000    -1.277000000    -4.199000000
C    -7.565000000    -0.615000000    -2.136000000
H    -8.206000000    -1.388000000    -1.720000000
C    -6.871000000     0.348000000    -1.419000000
O    -6.961000000     0.290000000    -0.012000000
C    -6.041000000    -0.222000000     0.843000000
C    -5.992000000     0.281000000     2.107000000
H    -6.640000000     1.077000000     2.465000000
C    -4.963000000    -0.167000000     2.971000000
O    -4.807000000     0.523000000     4.155000000
C    -4.135000000     0.203000000     5.314000000
C    -2.946000000     0.842000000     5.556000000
H    -2.586000000     1.641000000     4.912000000
C    -4.606000000    -0.869000000     6.065000000
H    -5.537000000    -1.350000000     5.778000000
C    -3.903000000    -1.173000000     7.234000000
H    -4.202000000    -2.007000000     7.865000000
C    -2.776000000    -0.415000000     7.588000000
H    -2.145000000    -0.734000000     8.414000000
C    -2.292000000     0.529000000     6.719000000
O    -1.095000000     1.160000000     7.022000000
C    -0.052000000     1.259000000     6.184000000
C     0.431000000     2.496000000     5.883000000
H     0.159000000     3.405000000     6.414000000
C     1.430000000     2.638000000     4.970000000
O     1.813000000     3.886000000     4.659000000
C     3.038000000     4.102000000     4.073000000
C     4.172000000     4.197000000     4.907000000
H     4.116000000     3.828000000     5.928000000
C     5.406000000     4.524000000     4.338000000
H     6.317000000     4.517000000     4.930000000
C     5.502000000     4.916000000     2.993000000
H     6.453000000     5.234000000     2.574000000
C     4.419000000     4.657000000     2.145000000
C     3.159000000     4.251000000     2.689000000
H     2.350000000     4.133000000     1.973000000
C    -0.942000000     1.762000000     1.839000000
H    -1.459000000     2.056000000     2.749000000
C    -0.895000000     0.391000000     1.658000000
H    -1.341000000    -0.252000000     2.413000000
C    -0.228000000    -0.126000000     0.521000000
H    -0.295000000    -1.223000000     0.392000000
C     0.322000000     0.704000000    -0.454000000
H     0.901000000     0.237000000    -1.246000000
C     0.172000000     2.095000000    -0.335000000
H     0.631000000     2.760000000    -1.063000000
C    -0.423000000     2.595000000     0.832000000
C    -0.480000000     4.096000000     1.082000000
O     0.081000000     4.818000000     0.307000000
O    -1.018000000     4.584000000     2.064000000
O    -5.240000000     8.063000000    -0.757000000
H    -5.363000000     7.191000000    -1.133000000
H    -4.424000000     7.998000000    -0.262000000
O     3.541000000     7.163000000     4.380000000
H     3.553000000     7.074000000     5.333000000
H     3.802000000     6.301000000     4.056000000
O    -3.057000000     7.665000000     0.895000000
H    -2.844000000     7.870000000     1.805000000
H    -2.212000000     7.471000000     0.489000000
O    -1.049000000     9.809000000     2.392000000
H    -0.609000000     9.473000000     1.611000000
H    -0.492000000     9.531000000     3.119000000
O    -2.467000000     6.615000000    -3.167000000
H    -2.332000000     5.844000000    -2.616000000
H    -2.763000000     6.261000000    -4.006000000
O    -5.890000000     4.517000000    -2.678000000
H    -5.233000000     4.744000000    -2.020000000
H    -5.450000000     3.886000000    -3.247000000
O     2.225000000     7.908000000     1.262000000
H     1.945000000     8.564000000     1.900000000
H     3.028000000     7.541000000     1.632000000
O    -1.745000000     5.332000000     7.156000000
H    -1.345000000     5.272000000     6.289000000
H    -1.576000000     6.232000000     7.435000000
O    -4.118000000     5.359000000    -0.707000000
H    -3.492000000     4.806000000    -1.176000000
H    -3.574000000     5.917000000    -0.150000000
O     0.895000000     8.332000000     3.801000000
H     0.384000000     7.616000000     4.178000000
H     1.786000000     7.986000000     3.744000000
O    -0.467000000     5.821000000     4.540000000
H    -0.884000000     5.711000000     3.685000000
H     0.311000000     5.265000000     4.500000000
O    -0.602000000     7.295000000     0.314000000
H    -0.656000000     6.356000000     0.491000000
H     0.259000000     7.552000000     0.644000000
O    -6.070000000     4.401000000     1.457000000
H    -5.271000000     4.259000000     1.965000000
H    -5.797000000     4.963000000     0.732000000
O     0.136000000     7.438000000    -2.429000000
H     0.048000000     7.075000000    -1.548000000
H    -0.604000000     7.072000000    -2.914000000
O    -3.084000000     1.896000000     0.133000000
H    -2.415000000     1.797000000     0.810000000
H    -3.722000000     1.208000000     0.323000000
O    -3.675000000     5.615000000     5.093000000
H    -3.195000000     5.673000000     5.919000000
H    -3.826000000     6.525000000     4.839000000
O    -2.281000000     3.900000000    -1.636000000
H    -1.375000000     3.737000000    -1.898000000
H    -2.517000000     3.138000000    -1.108000000
O     3.093000000     8.694000000    -1.220000000
H     2.631000000     7.956000000    -1.616000000
H     2.633000000     8.850000000    -0.395000000
O    -3.420000000     4.975000000     2.560000000
H    -2.490000000     4.812000000     2.407000000
H    -3.485000000     5.126000000     3.503000000
