215
-1458.04213
C    -3.521000000     0.315000000    -4.264000000
H    -3.319000000    -0.689000000    -4.627000000
C    -2.380000000     1.191000000    -4.223000000
C    -2.594000000     2.513000000    -3.933000000
H    -1.805000000     3.259000000    -3.973000000
C    -0.903000000     0.712000000    -4.371000000
O    -0.887000000    -0.499000000    -5.134000000
H    -0.572000000     0.466000000    -3.351000000
O    -0.079000000     1.795000000    -4.791000000
C     1.157000000     1.798000000    -4.190000000
C     1.288000000     2.726000000    -3.184000000
H     0.493000000     3.462000000    -3.091000000
C     2.441000000     2.763000000    -2.393000000
O     2.536000000     3.737000000    -1.415000000
C     3.478000000     1.895000000    -2.684000000
C     4.851000000     1.973000000    -1.947000000
H     5.607000000     1.503000000    -2.579000000
C     4.685000000     1.324000000    -0.609000000
C     5.049000000    -0.017000000    -0.440000000
H     5.292000000    -0.646000000    -1.292000000
H     5.304000000     2.950000000    -1.769000000
C     3.349000000     0.963000000    -3.725000000
H     4.256000000     0.377000000    -3.843000000
C     2.172000000     0.834000000    -4.378000000
C     2.003000000    -0.275000000    -5.367000000
H     2.971000000    -0.539000000    -5.796000000
H     1.369000000    -0.060000000    -6.230000000
C     1.286000000    -1.465000000    -4.616000000
C     2.093000000    -2.332000000    -3.901000000
H     3.156000000    -2.125000000    -3.807000000
C    -0.112000000    -1.525000000    -4.623000000
C    -0.704000000    -2.559000000    -3.953000000
H    -1.789000000    -2.621000000    -3.979000000
C     0.060000000    -3.470000000    -3.209000000
O    -0.684000000    -4.280000000    -2.359000000
C    -0.582000000    -4.143000000    -0.962000000
C    -1.927000000    -4.449000000    -0.327000000
C    -2.035000000    -5.117000000     0.875000000
H    -1.226000000    -5.542000000     1.463000000
C    -3.012000000    -3.662000000    -0.833000000
H    -2.883000000    -3.057000000    -1.727000000
O     0.453000000    -4.941000000    -0.349000000
H    -0.459000000    -3.068000000    -0.764000000
C     1.452000000    -3.406000000    -3.203000000
C     2.360000000    -4.402000000    -2.467000000
H     3.307000000    -4.408000000    -3.010000000
H     1.931000000    -5.406000000    -2.481000000
C     2.550000000    -4.016000000    -1.082000000
C     3.746000000    -3.310000000    -0.766000000
H     4.438000000    -2.976000000    -1.534000000
C     1.656000000    -4.313000000    -0.083000000
C     1.771000000    -3.691000000     1.110000000
H     1.037000000    -3.805000000     1.904000000
C     2.906000000    -3.027000000     1.494000000
O     2.916000000    -2.432000000     2.777000000
C     2.669000000    -1.049000000     2.945000000
C     1.828000000    -0.838000000     4.109000000
C     0.582000000    -1.536000000     4.142000000
H     0.367000000    -2.300000000     3.399000000
C     2.066000000     0.125000000     5.056000000
H     2.998000000     0.683000000     5.026000000
O     3.924000000    -0.374000000     3.058000000
H     2.049000000    -0.650000000     2.128000000
C     3.936000000    -2.865000000     0.567000000
C     5.125000000    -2.086000000     0.977000000
H     6.063000000    -2.327000000     0.474000000
H     5.421000000    -2.258000000     2.014000000
C     4.880000000    -0.574000000     0.824000000
C     4.386000000     0.169000000     1.930000000
C     4.158000000     1.508000000     1.775000000
H     3.858000000     2.198000000     2.560000000
C     4.383000000     2.089000000     0.533000000
O     3.737000000     3.296000000     0.446000000
C     2.450000000     3.282000000    -0.119000000
H     2.085000000     2.246000000    -0.051000000
C     1.548000000     4.199000000     0.682000000
C     0.293000000     4.493000000     0.152000000
H     0.062000000     4.126000000    -0.844000000
C     1.808000000     4.629000000     2.034000000
H     2.696000000     4.321000000     2.581000000
C     0.838000000     5.325000000     2.801000000
O     0.924000000     5.574000000     4.186000000
C    -0.321000000     5.614000000     2.213000000
H    -1.026000000     6.140000000     2.851000000
C    -0.619000000     5.222000000     0.919000000
O    -1.885000000     5.494000000     0.462000000
C    -2.209000000     5.665000000    -0.842000000
C    -3.003000000     4.720000000    -1.553000000
H    -3.291000000     3.784000000    -1.081000000
C    -1.904000000     6.896000000    -1.418000000
H    -1.253000000     7.616000000    -0.929000000
C    -2.329000000     7.218000000    -2.699000000
H    -2.011000000     8.128000000    -3.200000000
C    -3.071000000     6.287000000    -3.389000000
H    -3.361000000     6.568000000    -4.398000000
C    -3.435000000     5.078000000    -2.806000000
O    -4.242000000     4.301000000    -3.631000000
C    -3.924000000     2.997000000    -3.808000000
C    -5.010000000     2.113000000    -3.996000000
H    -5.996000000     2.548000000    -3.853000000
C    -4.833000000     0.740000000    -4.113000000
O    -5.875000000    -0.044000000    -4.435000000
C    -5.973000000    -1.288000000    -3.837000000
C    -5.685000000    -1.544000000    -2.517000000
H    -5.611000000    -0.699000000    -1.838000000
C    -6.245000000    -2.340000000    -4.741000000
H    -6.613000000    -2.109000000    -5.737000000
C    -6.237000000    -3.667000000    -4.332000000
H    -6.449000000    -4.411000000    -5.095000000
C    -5.896000000    -3.896000000    -2.952000000
H    -5.963000000    -4.920000000    -2.592000000
C    -5.663000000    -2.894000000    -2.055000000
O    -5.427000000    -3.178000000    -0.787000000
C    -4.290000000    -3.829000000    -0.219000000
C    -4.389000000    -4.585000000     0.949000000
H    -5.361000000    -4.675000000     1.428000000
C    -3.285000000    -5.146000000     1.510000000
O    -3.376000000    -5.630000000     2.840000000
C    -2.492000000    -5.160000000     3.812000000
C    -2.441000000    -3.787000000     4.108000000
H    -3.038000000    -3.083000000     3.535000000
C    -1.914000000    -6.042000000     4.673000000
H    -2.144000000    -7.085000000     4.474000000
C    -1.151000000    -5.570000000     5.794000000
H    -0.672000000    -6.298000000     6.444000000
C    -0.926000000    -4.228000000     5.981000000
H    -0.256000000    -3.889000000     6.767000000
C    -1.627000000    -3.336000000     5.119000000
O    -1.498000000    -2.002000000     5.281000000
C    -0.271000000    -1.356000000     5.224000000
C    -0.065000000    -0.303000000     6.075000000
H    -0.887000000    -0.130000000     6.765000000
C     1.037000000     0.522000000     5.973000000
O     1.246000000     1.564000000     6.854000000
C     1.758000000     2.812000000     6.500000000
C     2.710000000     3.432000000     7.260000000
H     3.210000000     2.995000000     8.121000000
C     3.228000000     4.649000000     6.952000000
H     4.070000000     5.105000000     7.466000000
C     2.693000000     5.366000000     5.886000000
H     3.140000000     6.343000000     5.723000000
C     1.616000000     4.886000000     5.145000000
C     1.220000000     3.551000000     5.447000000
H     0.373000000     3.116000000     4.923000000
C    -1.791000000     0.969000000    -0.569000000
H    -2.087000000     1.825000000    -1.170000000
C    -0.431000000     0.610000000    -0.779000000
H     0.237000000     1.233000000    -1.369000000
C     0.075000000    -0.449000000    -0.039000000
H     1.159000000    -0.761000000    -0.098000000
C    -0.697000000    -1.096000000     0.886000000
H    -0.267000000    -2.000000000     1.309000000
C    -2.009000000    -0.670000000     1.121000000
H    -2.657000000    -1.236000000     1.785000000
C    -2.568000000     0.435000000     0.424000000
C    -3.929000000     0.867000000     0.615000000
O    -4.723000000     0.135000000     1.173000000
O    -4.200000000     2.048000000     0.419000000
O    -5.659000000     6.673000000    -1.552000000
H    -6.132000000     7.316000000    -1.024000000
H    -4.737000000     6.908000000    -1.449000000
O    -7.365000000     3.259000000     5.604000000
H    -8.076000000     3.573000000     5.046000000
H    -6.949000000     2.563000000     5.094000000
O    -8.316000000    -1.242000000     3.044000000
H    -8.427000000    -0.491000000     2.461000000
H    -7.638000000    -1.773000000     2.624000000
O    -5.741000000    -2.019000000     1.810000000
H    -5.881000000    -2.476000000     0.980000000
H    -5.278000000    -1.217000000     1.566000000
O    -8.675000000     3.435000000     1.215000000
H    -8.973000000     3.709000000     0.348000000
H    -7.724000000     3.547000000     1.188000000
O    -7.467000000     0.047000000     0.623000000
H    -6.534000000     0.202000000     0.769000000
H    -7.743000000     0.764000000     0.052000000
O    -3.283000000     3.891000000     2.517000000
H    -2.963000000     4.463000000     1.819000000
H    -4.211000000     3.767000000     2.320000000
O    -1.922000000     1.208000000     3.449000000
H    -2.139000000     1.975000000     2.918000000
H    -1.491000000     0.609000000     2.839000000
O    -8.598000000    -2.505000000     0.053000000
H    -9.499000000    -2.188000000    -0.004000000
H    -8.069000000    -1.711000000     0.130000000
O    -6.994000000     5.680000000     2.293000000
H    -6.571000000     4.831000000     2.424000000
H    -6.767000000     6.184000000     3.074000000
O    -6.382000000     1.138000000     4.327000000
H    -6.768000000     0.397000000     4.794000000
H    -5.579000000     0.788000000     3.943000000
O    -4.122000000     4.264000000     5.310000000
H    -4.650000000     3.466000000     5.300000000
H    -3.589000000     4.208000000     4.516000000
O    -6.031000000     3.482000000    -1.147000000
H    -6.050000000     4.439000000    -1.155000000
H    -5.302000000     3.262000000    -0.567000000
O    -6.345000000    -3.657000000     4.055000000
H    -6.220000000    -2.892000000     3.492000000
H    -7.288000000    -3.686000000     4.214000000
O    -9.546000000     0.047000000    -3.515000000
H    -9.257000000    -0.864000000    -3.463000000
H    -8.771000000     0.558000000    -3.283000000
O    -9.984000000     2.243000000     3.412000000
H    -9.871000000     2.352000000     2.468000000
H    -9.717000000     3.083000000     3.785000000
O    -6.152000000     3.037000000     2.172000000
H    -5.549000000     2.734000000     1.493000000
H    -6.228000000     2.296000000     2.773000000
O    -6.933000000     5.540000000    -3.937000000
H    -6.268000000     5.656000000    -3.259000000
H    -7.076000000     6.420000000    -4.287000000
O    -8.062000000     2.030000000    -1.425000000
H    -7.224000000     2.478000000    -1.310000000
H    -8.636000000     2.691000000    -1.812000000
