215
-1455.99827
C    -3.546000000     0.884000000    -3.715000000
H    -3.506000000    -0.194000000    -3.848000000
C    -2.412000000     1.702000000    -3.651000000
C    -2.612000000     3.036000000    -3.357000000
H    -1.719000000     3.648000000    -3.453000000
C    -0.933000000     1.245000000    -3.941000000
O    -0.911000000     0.218000000    -4.940000000
H    -0.628000000     0.709000000    -3.031000000
O     0.022000000     2.294000000    -4.396000000
C     1.299000000     2.215000000    -3.971000000
C     1.530000000     3.133000000    -2.919000000
H     0.806000000     3.865000000    -2.571000000
C     2.721000000     3.045000000    -2.249000000
O     2.833000000     3.835000000    -1.144000000
C     3.696000000     2.124000000    -2.588000000
C     5.037000000     1.961000000    -1.780000000
H     5.823000000     1.542000000    -2.413000000
C     4.770000000     1.169000000    -0.474000000
C     5.009000000    -0.184000000    -0.490000000
H     5.243000000    -0.774000000    -1.372000000
H     5.418000000     2.950000000    -1.520000000
C     3.445000000     1.156000000    -3.632000000
H     4.175000000     0.368000000    -3.802000000
C     2.205000000     1.176000000    -4.300000000
C     1.808000000     0.132000000    -5.363000000
H     2.685000000    -0.251000000    -5.889000000
H     1.225000000     0.649000000    -6.128000000
C     1.104000000    -1.102000000    -4.839000000
C     1.807000000    -2.232000000    -4.373000000
H     2.887000000    -2.353000000    -4.381000000
C    -0.296000000    -1.049000000    -4.639000000
C    -0.977000000    -2.057000000    -4.084000000
H    -2.012000000    -1.981000000    -3.760000000
C    -0.313000000    -3.209000000    -3.725000000
O    -0.949000000    -4.122000000    -2.861000000
C    -0.892000000    -3.661000000    -1.590000000
C    -2.202000000    -3.674000000    -0.834000000
C    -2.182000000    -3.393000000     0.536000000
H    -1.202000000    -3.301000000     0.997000000
C    -3.384000000    -3.725000000    -1.538000000
H    -3.364000000    -3.865000000    -2.615000000
O    -0.075000000    -4.628000000    -0.942000000
H    -0.380000000    -2.692000000    -1.499000000
C     1.120000000    -3.316000000    -3.792000000
C     1.953000000    -4.420000000    -3.056000000
H     2.904000000    -4.463000000    -3.592000000
H     1.476000000    -5.398000000    -3.140000000
C     2.208000000    -4.041000000    -1.618000000
C     3.413000000    -3.487000000    -1.178000000
H     4.259000000    -3.276000000    -1.828000000
C     1.176000000    -4.160000000    -0.652000000
C     1.431000000    -3.922000000     0.713000000
H     0.603000000    -4.079000000     1.400000000
C     2.639000000    -3.353000000     1.110000000
O     2.813000000    -3.040000000     2.437000000
C     2.706000000    -1.652000000     2.915000000
C     2.083000000    -1.709000000     4.291000000
C     1.254000000    -2.803000000     4.665000000
H     1.216000000    -3.687000000     4.032000000
C     2.084000000    -0.502000000     5.045000000
H     2.627000000     0.342000000     4.627000000
O     4.040000000    -1.140000000     2.955000000
H     2.101000000    -1.048000000     2.222000000
C     3.584000000    -3.125000000     0.158000000
C     4.916000000    -2.448000000     0.617000000
H     5.729000000    -2.850000000     0.009000000
H     5.270000000    -2.850000000     1.568000000
C     4.771000000    -0.968000000     0.654000000
C     4.436000000    -0.362000000     1.858000000
C     4.264000000     0.981000000     1.917000000
H     3.926000000     1.554000000     2.777000000
C     4.501000000     1.761000000     0.787000000
O     4.004000000     3.039000000     0.791000000
C     2.685000000     3.195000000     0.198000000
H     2.344000000     2.172000000    -0.021000000
C     1.708000000     3.934000000     1.129000000
C     0.456000000     4.255000000     0.617000000
H     0.300000000     4.084000000    -0.445000000
C     1.978000000     4.002000000     2.494000000
H     2.884000000     3.589000000     2.931000000
C     1.059000000     4.759000000     3.268000000
O     1.368000000     5.054000000     4.596000000
C    -0.141000000     5.121000000     2.769000000
H    -0.921000000     5.582000000     3.368000000
C    -0.469000000     4.849000000     1.452000000
O    -1.696000000     5.217000000     0.895000000
C    -1.864000000     5.756000000    -0.359000000
C    -2.939000000     5.232000000    -1.009000000
H    -3.556000000     4.493000000    -0.505000000
C    -1.018000000     6.694000000    -0.906000000
H    -0.140000000     7.018000000    -0.353000000
C    -1.215000000     7.081000000    -2.194000000
H    -0.559000000     7.847000000    -2.599000000
C    -2.268000000     6.512000000    -2.933000000
H    -2.416000000     6.839000000    -3.959000000
C    -3.096000000     5.604000000    -2.332000000
O    -4.063000000     4.906000000    -3.050000000
C    -3.882000000     3.559000000    -3.208000000
C    -4.954000000     2.806000000    -3.286000000
H    -5.955000000     3.203000000    -3.139000000
C    -4.855000000     1.462000000    -3.527000000
O    -5.975000000     0.785000000    -3.657000000
C    -6.186000000    -0.636000000    -3.628000000
C    -5.640000000    -1.399000000    -2.576000000
H    -4.841000000    -1.063000000    -1.919000000
C    -7.058000000    -1.213000000    -4.560000000
H    -7.540000000    -0.659000000    -5.361000000
C    -7.539000000    -2.499000000    -4.429000000
H    -8.329000000    -2.858000000    -5.083000000
C    -7.021000000    -3.295000000    -3.442000000
H    -7.135000000    -4.375000000    -3.396000000
C    -6.213000000    -2.694000000    -2.482000000
O    -5.798000000    -3.534000000    -1.497000000
C    -4.582000000    -3.475000000    -0.856000000
C    -4.574000000    -3.265000000     0.538000000
H    -5.521000000    -3.003000000     1.005000000
C    -3.365000000    -3.266000000     1.213000000
O    -3.285000000    -3.077000000     2.619000000
C    -2.564000000    -3.941000000     3.439000000
C    -1.828000000    -3.436000000     4.532000000
H    -1.888000000    -2.362000000     4.689000000
C    -2.574000000    -5.299000000     3.245000000
H    -3.157000000    -5.657000000     2.400000000
C    -1.709000000    -6.070000000     4.002000000
H    -1.581000000    -7.097000000     3.671000000
C    -0.988000000    -5.579000000     5.071000000
H    -0.343000000    -6.202000000     5.686000000
C    -1.109000000    -4.251000000     5.371000000
O    -0.180000000    -3.738000000     6.229000000
C     0.533000000    -2.679000000     5.820000000
C     0.581000000    -1.467000000     6.520000000
H    -0.051000000    -1.276000000     7.383000000
C     1.303000000    -0.374000000     6.120000000
O     1.076000000     0.822000000     6.784000000
C     1.795000000     1.984000000     6.532000000
C     2.903000000     2.406000000     7.292000000
H     3.292000000     1.637000000     7.955000000
C     3.556000000     3.597000000     7.051000000
H     4.317000000     3.943000000     7.747000000
C     2.932000000     4.559000000     6.229000000
H     3.219000000     5.608000000     6.204000000
C     1.903000000     4.085000000     5.432000000
C     1.335000000     2.830000000     5.558000000
H     0.482000000     2.442000000     5.007000000
C    -1.459000000     1.590000000     0.183000000
H    -1.899000000     2.561000000    -0.030000000
C    -0.261000000     1.181000000    -0.372000000
H     0.244000000     1.753000000    -1.146000000
C     0.399000000     0.005000000     0.133000000
H     1.364000000    -0.414000000    -0.251000000
C    -0.271000000    -0.720000000     1.108000000
H     0.189000000    -1.651000000     1.430000000
C    -1.450000000    -0.337000000     1.626000000
H    -1.969000000    -0.962000000     2.348000000
C    -2.083000000     0.836000000     1.169000000
C    -3.390000000     1.224000000     1.729000000
O    -3.911000000     0.687000000     2.734000000
O    -3.908000000     2.298000000     1.470000000
O    -7.234000000     5.547000000    -1.800000000
H    -7.987000000     4.991000000    -2.000000000
H    -6.623000000     4.968000000    -1.345000000
O    -4.438000000    -1.375000000     4.508000000
H    -4.392000000    -2.161000000     3.964000000
H    -4.077000000    -0.681000000     3.957000000
O    -9.930000000     3.666000000     0.638000000
H    -9.587000000     4.538000000     0.443000000
H    -9.154000000     3.106000000     0.673000000
O    -6.628000000    -0.056000000     2.335000000
H    -5.733000000     0.284000000     2.358000000
H    -6.964000000     0.212000000     1.479000000
O    -3.439000000     4.368000000     3.118000000
H    -3.747000000     5.127000000     2.624000000
H    -3.584000000     3.625000000     2.532000000
O    -6.425000000    -2.861000000     5.847000000
H    -5.649000000    -2.353000000     5.611000000
H    -6.101000000    -3.521000000     6.460000000
O    -2.141000000     2.353000000     4.576000000
H    -2.441000000     3.148000000     4.134000000
H    -2.480000000     1.638000000     4.038000000
O    -7.036000000    -2.625000000     3.113000000
H    -7.046000000    -2.645000000     4.069000000
H    -6.689000000    -1.760000000     2.894000000
O    -5.827000000     5.891000000     1.242000000
H    -6.745000000     6.161000000     1.213000000
H    -5.338000000     6.710000000     1.315000000
O    -2.871000000    -0.593000000     6.963000000
H    -3.286000000    -0.842000000     6.137000000
H    -3.292000000    -1.149000000     7.619000000
O    -5.269000000     1.360000000     6.627000000
H    -4.477000000     0.854000000     6.445000000
H    -5.628000000     1.563000000     5.763000000
O    -5.839000000     3.358000000     0.101000000
H    -5.995000000     4.144000000     0.624000000
H    -5.095000000     2.931000000     0.526000000
O    -1.794000000     1.986000000     7.288000000
H    -2.269000000     1.157000000     7.224000000
H    -1.741000000     2.302000000     6.386000000
O    -7.875000000    -0.108000000     4.887000000
H    -7.309000000     0.065000000     4.135000000
H    -8.628000000     0.468000000     4.757000000
O    -5.211000000     2.620000000     4.190000000
H    -4.762000000     2.000000000     3.616000000
H    -4.637000000     3.385000000     4.213000000
O    -7.655000000     3.053000000     3.392000000
H    -6.786000000     3.037000000     3.793000000
H    -7.637000000     2.339000000     2.755000000
O    -7.885000000     2.039000000     0.848000000
H    -7.235000000     2.373000000     0.230000000
H    -8.295000000     1.304000000     0.392000000
O    -7.794000000     5.928000000     3.306000000
H    -7.565000000     5.003000000     3.393000000
H    -8.318000000     5.971000000     2.505000000
O    -3.160000000     5.806000000     5.716000000
H    -3.139000000     5.276000000     4.919000000
H    -2.405000000     5.506000000     6.223000000
