215
-1451.69649
C    -3.654000000     1.661000000    -2.523000000
H    -3.907000000     0.608000000    -2.626000000
C    -2.485000000     2.172000000    -3.096000000
C    -2.157000000     3.499000000    -2.926000000
H    -1.245000000     3.910000000    -3.351000000
C    -1.518000000     1.169000000    -3.756000000
O    -2.201000000     0.133000000    -4.370000000
H    -1.023000000     0.689000000    -2.898000000
O    -0.514000000     1.804000000    -4.618000000
C     0.815000000     1.490000000    -4.418000000
C     1.542000000     2.318000000    -3.607000000
H     1.047000000     3.260000000    -3.386000000
C     2.850000000     1.957000000    -3.194000000
O     3.245000000     2.901000000    -2.270000000
C     3.430000000     0.787000000    -3.547000000
C     4.822000000     0.426000000    -2.985000000
H     5.325000000    -0.208000000    -3.719000000
C     4.626000000    -0.262000000    -1.630000000
C     4.570000000    -1.657000000    -1.536000000
H     4.889000000    -2.187000000    -2.430000000
H     5.369000000     1.359000000    -2.838000000
C     2.706000000    -0.074000000    -4.451000000
H     3.182000000    -1.004000000    -4.752000000
C     1.384000000     0.229000000    -4.836000000
C     0.448000000    -0.727000000    -5.607000000
H     1.174000000    -1.354000000    -6.130000000
H    -0.066000000    -0.111000000    -6.347000000
C    -0.494000000    -1.480000000    -4.676000000
C     0.060000000    -2.680000000    -4.238000000
H     1.039000000    -2.998000000    -4.588000000
C    -1.718000000    -1.106000000    -4.176000000
C    -2.440000000    -1.865000000    -3.301000000
H    -3.395000000    -1.614000000    -2.846000000
C    -1.924000000    -3.031000000    -2.843000000
O    -2.675000000    -3.676000000    -1.860000000
C    -2.318000000    -3.530000000    -0.541000000
C    -3.548000000    -3.364000000     0.327000000
C    -3.475000000    -3.671000000     1.683000000
H    -2.566000000    -4.183000000     1.988000000
C    -4.777000000    -2.978000000    -0.208000000
H    -4.790000000    -2.870000000    -1.289000000
O    -1.503000000    -4.752000000    -0.175000000
H    -1.623000000    -2.682000000    -0.448000000
C    -0.675000000    -3.476000000    -3.298000000
C    -0.013000000    -4.805000000    -2.712000000
H     0.595000000    -5.288000000    -3.480000000
H    -0.886000000    -5.452000000    -2.610000000
C     0.642000000    -4.586000000    -1.412000000
C     2.027000000    -4.311000000    -1.400000000
H     2.539000000    -4.165000000    -2.348000000
C    -0.112000000    -4.595000000    -0.242000000
C     0.593000000    -4.396000000     0.980000000
H     0.087000000    -4.363000000     1.941000000
C     1.954000000    -4.043000000     1.015000000
O     2.422000000    -3.690000000     2.252000000
C     2.702000000    -2.285000000     2.487000000
C     2.338000000    -1.889000000     3.915000000
C     1.173000000    -2.386000000     4.535000000
H     0.543000000    -2.992000000     3.889000000
C     3.111000000    -0.975000000     4.596000000
H     4.015000000    -0.688000000     4.064000000
O     4.058000000    -1.967000000     2.096000000
H     1.957000000    -1.753000000     1.877000000
C     2.702000000    -4.065000000    -0.178000000
C     4.274000000    -3.820000000    -0.159000000
H     4.689000000    -4.241000000    -1.078000000
H     4.834000000    -4.127000000     0.727000000
C     4.347000000    -2.303000000    -0.251000000
C     4.234000000    -1.426000000     0.875000000
C     4.286000000    -0.024000000     0.799000000
H     4.239000000     0.531000000     1.733000000
C     4.458000000     0.607000000    -0.431000000
O     4.416000000     1.988000000    -0.520000000
C     3.156000000     2.659000000    -0.850000000
H     2.372000000     1.903000000    -0.699000000
C     2.873000000     3.838000000     0.093000000
C     2.137000000     4.912000000    -0.369000000
H     1.869000000     5.013000000    -1.417000000
C     3.121000000     3.630000000     1.455000000
H     3.604000000     2.726000000     1.817000000
C     2.733000000     4.636000000     2.335000000
O     2.837000000     4.516000000     3.684000000
C     2.090000000     5.754000000     1.864000000
H     1.751000000     6.560000000     2.509000000
C     1.752000000     5.889000000     0.511000000
O     1.162000000     7.089000000     0.053000000
C     0.325000000     7.120000000    -1.092000000
C    -0.906000000     6.440000000    -1.059000000
H    -1.150000000     5.902000000    -0.147000000
C     0.717000000     7.813000000    -2.268000000
H     1.641000000     8.386000000    -2.240000000
C    -0.005000000     7.796000000    -3.424000000
H     0.286000000     8.372000000    -4.298000000
C    -1.258000000     7.113000000    -3.337000000
H    -1.991000000     7.042000000    -4.136000000
C    -1.637000000     6.328000000    -2.219000000
O    -2.895000000     5.704000000    -2.110000000
C    -3.102000000     4.312000000    -2.247000000
C    -4.197000000     3.761000000    -1.575000000
H    -4.921000000     4.480000000    -1.198000000
C    -4.416000000     2.430000000    -1.670000000
O    -5.631000000     1.979000000    -1.066000000
C    -6.396000000     0.857000000    -1.464000000
C    -6.378000000    -0.254000000    -0.684000000
H    -5.743000000    -0.215000000     0.198000000
C    -7.111000000     0.781000000    -2.636000000
H    -7.123000000     1.716000000    -3.190000000
C    -7.817000000    -0.409000000    -2.994000000
H    -8.325000000    -0.390000000    -3.954000000
C    -7.870000000    -1.456000000    -2.085000000
H    -8.514000000    -2.313000000    -2.264000000
C    -7.112000000    -1.390000000    -0.914000000
O    -7.066000000    -2.404000000     0.032000000
C    -5.872000000    -2.798000000     0.635000000
C    -5.831000000    -3.068000000     2.006000000
H    -6.664000000    -2.887000000     2.681000000
C    -4.612000000    -3.478000000     2.507000000
O    -4.441000000    -3.689000000     3.931000000
C    -3.227000000    -3.966000000     4.510000000
C    -2.531000000    -2.915000000     5.084000000
H    -2.959000000    -1.922000000     4.975000000
C    -2.734000000    -5.251000000     4.477000000
H    -3.267000000    -6.083000000     4.023000000
C    -1.518000000    -5.553000000     5.008000000
H    -1.136000000    -6.567000000     5.092000000
C    -0.881000000    -4.535000000     5.702000000
H    -0.017000000    -4.866000000     6.273000000
C    -1.310000000    -3.224000000     5.699000000
O    -0.546000000    -2.244000000     6.257000000
C     0.767000000    -1.966000000     5.806000000
C     1.560000000    -0.943000000     6.429000000
H     1.253000000    -0.522000000     7.384000000
C     2.695000000    -0.432000000     5.809000000
O     3.465000000     0.516000000     6.420000000
C     3.909000000     1.621000000     5.760000000
C     5.249000000     1.718000000     5.633000000
H     5.859000000     0.965000000     6.124000000
C     5.811000000     2.672000000     4.816000000
H     6.888000000     2.662000000     4.673000000
C     5.062000000     3.678000000     4.280000000
H     5.472000000     4.544000000     3.768000000
C     3.639000000     3.570000000     4.334000000
C     3.059000000     2.502000000     5.122000000
H     1.980000000     2.464000000     5.245000000
C    -1.675000000     2.127000000     0.289000000
H    -2.071000000     3.126000000     0.124000000
C    -0.468000000     1.773000000    -0.347000000
H    -0.052000000     2.549000000    -0.986000000
C    -0.013000000     0.501000000    -0.330000000
H     0.936000000     0.183000000    -0.774000000
C    -0.710000000    -0.448000000     0.446000000
H    -0.325000000    -1.465000000     0.448000000
C    -1.912000000    -0.183000000     1.131000000
H    -2.338000000    -0.975000000     1.743000000
C    -2.444000000     1.134000000     1.011000000
C    -3.758000000     1.618000000     1.640000000
O    -4.508000000     0.783000000     2.158000000
O    -3.981000000     2.829000000     1.656000000
O    -7.342000000     5.686000000     3.209000000
H    -8.108000000     5.638000000     2.636000000
H    -6.652000000     5.232000000     2.725000000
O    -6.893000000     6.488000000    -0.571000000
H    -6.942000000     6.289000000    -1.506000000
H    -7.704000000     6.960000000    -0.383000000
O    -1.222000000     1.538000000     5.730000000
H    -0.882000000     1.703000000     4.850000000
H    -2.052000000     1.084000000     5.584000000
O    -4.563000000     4.146000000     7.950000000
H    -4.372000000     4.088000000     7.014000000
H    -5.126000000     4.916000000     8.033000000
O    -8.048000000     2.589000000     6.012000000
H    -8.392000000     3.296000000     6.558000000
H    -7.259000000     2.956000000     5.614000000
O    -9.687000000     2.876000000     2.823000000
H    -8.732000000     2.826000000     2.864000000
H    -9.983000000     1.992000000     3.041000000
O    -5.936000000     3.314000000     4.636000000
H    -5.516000000     2.469000000     4.798000000
H    -6.335000000     3.222000000     3.771000000
O    -6.741000000    -0.286000000     3.127000000
H    -6.277000000    -1.059000000     3.449000000
H    -6.074000000     0.214000000     2.657000000
O    -3.167000000     7.475000000     2.483000000
H    -2.841000000     7.153000000     3.323000000
H    -3.688000000     6.751000000     2.135000000
O    -2.039000000     4.014000000     3.144000000
H    -2.606000000     4.223000000     3.886000000
H    -2.612000000     3.563000000     2.524000000
O     0.011000000     5.120000000     4.218000000
H     0.751000000     4.603000000     3.899000000
H    -0.761000000     4.666000000     3.883000000
O    -4.385000000     0.999000000     5.050000000
H    -4.340000000     0.936000000     4.096000000
H    -4.606000000     0.113000000     5.339000000
O    -4.892000000     5.496000000     1.603000000
H    -5.322000000     5.596000000     0.754000000
H    -4.597000000     4.586000000     1.618000000
O    -8.521000000     0.687000000     1.050000000
H    -7.959000000     0.318000000     1.732000000
H    -9.335000000     0.908000000     1.504000000
O    -0.037000000     1.845000000     3.223000000
H     0.430000000     1.388000000     2.524000000
H    -0.646000000     2.425000000     2.766000000
O    -6.662000000     2.804000000     1.923000000
H    -6.963000000     2.412000000     1.104000000
H    -5.713000000     2.677000000     1.915000000
O    -4.896000000    -1.456000000     6.099000000
H    -5.022000000    -1.609000000     7.035000000
H    -5.782000000    -1.358000000     5.751000000
O    -9.884000000     0.432000000     3.606000000
H    -9.514000000    -0.421000000     3.380000000
H    -9.976000000     0.408000000     4.559000000
O    -3.711000000     5.031000000     5.035000000
H    -3.780000000     5.973000000     5.193000000
H    -4.573000000     4.686000000     5.267000000
