215
-1470.08321
C    -4.330000000     1.170000000    -2.701000000
H    -4.473000000     0.093000000    -2.680000000
C    -3.050000000     1.674000000    -2.983000000
C    -2.768000000     3.014000000    -2.734000000
H    -1.802000000     3.489000000    -2.883000000
C    -1.885000000     0.797000000    -3.482000000
O    -2.406000000    -0.356000000    -4.178000000
H    -1.351000000     0.407000000    -2.604000000
O    -1.010000000     1.503000000    -4.429000000
C     0.316000000     1.284000000    -4.296000000
C     1.077000000     2.232000000    -3.734000000
H     0.494000000     3.013000000    -3.254000000
C     2.427000000     1.979000000    -3.469000000
O     3.055000000     2.920000000    -2.699000000
C     3.085000000     0.802000000    -3.866000000
C     4.522000000     0.510000000    -3.513000000
H     4.975000000    -0.247000000    -4.155000000
C     4.587000000     0.057000000    -2.043000000
C     4.662000000    -1.255000000    -1.786000000
H     4.830000000    -1.922000000    -2.627000000
H     5.125000000     1.417000000    -3.596000000
C     2.298000000    -0.152000000    -4.474000000
H     2.750000000    -1.112000000    -4.711000000
C     0.934000000     0.091000000    -4.815000000
C     0.206000000    -0.994000000    -5.513000000
H     0.977000000    -1.506000000    -6.093000000
H    -0.585000000    -0.644000000    -6.180000000
C    -0.563000000    -1.867000000    -4.506000000
C     0.152000000    -2.969000000    -4.018000000
H     1.163000000    -3.170000000    -4.364000000
C    -1.822000000    -1.550000000    -3.960000000
C    -2.435000000    -2.360000000    -3.004000000
H    -3.376000000    -2.110000000    -2.521000000
C    -1.854000000    -3.562000000    -2.704000000
O    -2.515000000    -4.305000000    -1.688000000
C    -2.052000000    -3.943000000    -0.351000000
C    -3.140000000    -3.822000000     0.700000000
C    -2.898000000    -4.272000000     2.007000000
H    -1.981000000    -4.761000000     2.327000000
C    -4.350000000    -3.196000000     0.355000000
H    -4.411000000    -2.910000000    -0.692000000
O    -1.040000000    -4.897000000     0.017000000
H    -1.535000000    -2.974000000    -0.413000000
C    -0.515000000    -3.882000000    -3.156000000
C     0.387000000    -5.006000000    -2.612000000
H     1.102000000    -5.298000000    -3.384000000
H    -0.293000000    -5.828000000    -2.378000000
C     1.023000000    -4.611000000    -1.298000000
C     2.372000000    -4.122000000    -1.304000000
H     2.948000000    -4.255000000    -2.216000000
C     0.285000000    -4.566000000    -0.046000000
C     0.868000000    -4.093000000     1.146000000
H     0.342000000    -4.036000000     2.096000000
C     2.189000000    -3.659000000     1.075000000
O     2.713000000    -3.138000000     2.222000000
C     2.918000000    -1.660000000     2.308000000
C     2.434000000    -1.057000000     3.614000000
C     1.368000000    -1.635000000     4.285000000
H     1.056000000    -2.597000000     3.885000000
C     2.929000000     0.169000000     4.054000000
H     3.770000000     0.634000000     3.546000000
O     4.269000000    -1.175000000     1.906000000
H     2.192000000    -1.289000000     1.570000000
C     2.882000000    -3.636000000    -0.147000000
C     4.354000000    -3.241000000    -0.238000000
H     4.934000000    -3.839000000    -0.943000000
H     4.770000000    -3.385000000     0.762000000
C     4.466000000    -1.721000000    -0.531000000
C     4.405000000    -0.833000000     0.598000000
C     4.542000000     0.517000000     0.322000000
H     4.416000000     1.230000000     1.133000000
C     4.541000000     0.934000000    -0.969000000
O     4.471000000     2.286000000    -1.025000000
C     3.144000000     2.745000000    -1.267000000
H     2.408000000     1.961000000    -1.035000000
C     2.780000000     3.928000000    -0.374000000
C     1.769000000     4.872000000    -0.750000000
H     1.251000000     4.638000000    -1.677000000
C     3.378000000     4.108000000     0.879000000
H     4.283000000     3.523000000     1.021000000
C     3.113000000     5.261000000     1.614000000
O     3.628000000     5.519000000     2.874000000
C     1.998000000     6.027000000     1.329000000
H     1.695000000     6.849000000     1.973000000
C     1.366000000     5.860000000     0.130000000
O     0.433000000     6.853000000    -0.322000000
C    -0.509000000     6.684000000    -1.347000000
C    -1.587000000     5.848000000    -1.079000000
H    -1.558000000     5.312000000    -0.134000000
C    -0.462000000     7.462000000    -2.513000000
H     0.376000000     8.099000000    -2.781000000
C    -1.454000000     7.343000000    -3.434000000
H    -1.339000000     7.945000000    -4.332000000
C    -2.519000000     6.466000000    -3.220000000
H    -3.422000000     6.479000000    -3.824000000
C    -2.520000000     5.741000000    -2.060000000
O    -3.613000000     5.032000000    -1.750000000
C    -3.802000000     3.795000000    -2.208000000
C    -5.082000000     3.319000000    -2.019000000
H    -5.778000000     4.068000000    -1.652000000
C    -5.360000000     1.994000000    -2.230000000
O    -6.581000000     1.500000000    -1.939000000
C    -6.785000000     0.157000000    -1.567000000
C    -6.451000000    -0.373000000    -0.300000000
H    -5.916000000     0.222000000     0.435000000
C    -7.405000000    -0.644000000    -2.501000000
H    -7.756000000    -0.255000000    -3.453000000
C    -7.670000000    -1.957000000    -2.292000000
H    -8.198000000    -2.620000000    -2.974000000
C    -7.356000000    -2.548000000    -1.035000000
H    -7.602000000    -3.570000000    -0.759000000
C    -6.719000000    -1.726000000    -0.073000000
O    -6.459000000    -2.255000000     1.120000000
C    -5.361000000    -3.056000000     1.303000000
C    -5.082000000    -3.567000000     2.637000000
H    -5.779000000    -3.402000000     3.455000000
C    -3.832000000    -4.012000000     3.012000000
O    -3.621000000    -4.449000000     4.278000000
C    -2.401000000    -4.287000000     4.983000000
C    -1.870000000    -3.055000000     5.131000000
H    -2.395000000    -2.154000000     4.825000000
C    -1.735000000    -5.386000000     5.469000000
H    -2.199000000    -6.356000000     5.314000000
C    -0.471000000    -5.291000000     6.138000000
H     0.104000000    -6.126000000     6.532000000
C     0.007000000    -4.023000000     6.336000000
H     0.931000000    -3.894000000     6.894000000
C    -0.637000000    -2.931000000     5.764000000
O    -0.222000000    -1.694000000     6.102000000
C     0.864000000    -1.109000000     5.478000000
C     1.390000000     0.063000000     5.917000000
H     1.112000000     0.533000000     6.857000000
C     2.467000000     0.723000000     5.250000000
O     3.144000000     1.710000000     5.929000000
C     3.957000000     2.650000000     5.303000000
C     5.323000000     2.640000000     5.534000000
H     5.792000000     1.864000000     6.133000000
C     6.093000000     3.472000000     4.716000000
H     7.153000000     3.231000000     4.688000000
C     5.529000000     4.483000000     3.871000000
H     6.143000000     5.231000000     3.376000000
C     4.132000000     4.548000000     3.680000000
C     3.351000000     3.574000000     4.394000000
H     2.277000000     3.563000000     4.226000000
C    -2.343000000     1.979000000     0.656000000
H    -2.801000000     2.925000000     0.379000000
C    -1.122000000     1.532000000     0.148000000
H    -0.695000000     2.147000000    -0.641000000
C    -0.595000000     0.267000000     0.455000000
H     0.405000000     0.016000000     0.073000000
C    -1.329000000    -0.552000000     1.309000000
H    -0.949000000    -1.552000000     1.506000000
C    -2.507000000    -0.035000000     1.896000000
H    -2.986000000    -0.695000000     2.615000000
C    -3.026000000     1.234000000     1.573000000
C    -4.108000000     1.874000000     2.362000000
O    -5.040000000     1.171000000     2.758000000
O    -4.177000000     3.085000000     2.497000000
O    -3.948000000     5.827000000     5.760000000
H    -4.274000000     4.958000000     5.523000000
H    -4.497000000     6.096000000     6.496000000
O    -1.993000000     0.931000000     4.749000000
H    -1.251000000     1.111000000     4.171000000
H    -1.875000000     1.533000000     5.484000000
O    -4.508000000     2.933000000     7.537000000
H    -4.924000000     2.763000000     6.691000000
H    -4.938000000     3.725000000     7.860000000
O    -8.051000000     2.736000000     5.909000000
H    -8.519000000     3.273000000     5.269000000
H    -8.165000000     3.199000000     6.739000000
O    -7.879000000     0.513000000     3.137000000
H    -8.014000000    -0.395000000     3.408000000
H    -6.952000000     0.679000000     3.308000000
O    -2.388000000     7.071000000     2.969000000
H    -2.073000000     7.891000000     2.589000000
H    -2.811000000     7.333000000     3.787000000
O    -1.611000000     4.473000000     2.700000000
H    -1.866000000     5.393000000     2.757000000
H    -2.438000000     4.001000000     2.602000000
O    -1.586000000     2.471000000     7.247000000
H    -1.200000000     3.208000000     6.773000000
H    -2.489000000     2.740000000     7.412000000
O    -0.647000000     3.802000000     5.101000000
H    -1.274000000     4.454000000     4.787000000
H    -0.268000000     3.430000000     4.305000000
O    -4.505000000    -0.338000000     4.862000000
H    -4.755000000     0.035000000     4.016000000
H    -3.740000000     0.170000000     5.131000000
O    -4.157000000     5.620000000     1.275000000
H    -3.729000000     6.089000000     1.990000000
H    -4.267000000     4.728000000     1.605000000
O    -6.815000000     3.430000000     1.990000000
H    -7.443000000     2.707000000     2.004000000
H    -5.973000000     3.019000000     2.188000000
O     0.195000000     2.364000000     2.777000000
H     0.022000000     1.659000000     2.154000000
H    -0.122000000     3.155000000     2.340000000
O    -9.180000000     1.776000000     1.139000000
H   -10.076000000     1.523000000     1.363000000
H    -8.630000000     1.131000000     1.584000000
O    -6.250000000     6.228000000     3.841000000
H    -6.052000000     6.006000000     4.750000000
H    -6.227000000     5.390000000     3.379000000
O    -6.715000000    -1.555000000     5.704000000
H    -6.371000000    -2.437000000     5.846000000
H    -6.006000000    -1.089000000     5.262000000
O   -10.248000000     3.104000000     3.650000000
H   -10.889000000     3.297000000     2.966000000
H    -9.589000000     2.564000000     3.215000000
O    -6.601000000     6.747000000     0.118000000
H    -5.952000000     6.049000000     0.209000000
H    -7.411000000     6.367000000     0.458000000
O    -5.467000000     3.518000000     4.883000000
H    -5.105000000     3.261000000     4.035000000
H    -6.332000000     3.109000000     4.908000000
