215
-1438.76408
C    -4.327000000     0.889000000    -2.872000000
H    -4.399000000    -0.111000000    -3.292000000
C    -3.085000000     1.529000000    -2.990000000
C    -2.984000000     2.859000000    -2.516000000
H    -2.030000000     3.360000000    -2.656000000
C    -1.930000000     0.810000000    -3.633000000
O    -2.246000000    -0.293000000    -4.481000000
H    -1.280000000     0.429000000    -2.830000000
O    -1.086000000     1.660000000    -4.418000000
C     0.293000000     1.587000000    -4.310000000
C     0.918000000     2.645000000    -3.632000000
H     0.369000000     3.544000000    -3.365000000
C     2.308000000     2.586000000    -3.303000000
O     2.697000000     3.510000000    -2.333000000
C     3.075000000     1.425000000    -3.675000000
C     4.460000000     1.339000000    -3.248000000
H     5.041000000     0.771000000    -3.978000000
C     4.562000000     0.723000000    -1.835000000
C     4.804000000    -0.655000000    -1.694000000
H     4.903000000    -1.220000000    -2.617000000
H     4.912000000     2.333000000    -3.246000000
C     2.426000000     0.443000000    -4.391000000
H     3.138000000    -0.321000000    -4.692000000
C     1.063000000     0.496000000    -4.753000000
C     0.418000000    -0.706000000    -5.520000000
H     1.189000000    -1.172000000    -6.136000000
H    -0.321000000    -0.205000000    -6.149000000
C    -0.229000000    -1.730000000    -4.594000000
C     0.435000000    -2.888000000    -4.197000000
H     1.504000000    -3.003000000    -4.353000000
C    -1.559000000    -1.516000000    -4.260000000
C    -2.177000000    -2.433000000    -3.398000000
H    -3.136000000    -2.140000000    -2.979000000
C    -1.424000000    -3.511000000    -2.844000000
O    -2.007000000    -4.190000000    -1.807000000
C    -1.522000000    -3.846000000    -0.454000000
C    -2.730000000    -3.783000000     0.539000000
C    -2.473000000    -3.883000000     1.946000000
H    -1.474000000    -3.988000000     2.362000000
C    -4.037000000    -3.531000000     0.119000000
H    -4.367000000    -3.465000000    -0.915000000
O    -0.543000000    -4.831000000     0.003000000
H    -1.082000000    -2.839000000    -0.488000000
C    -0.130000000    -3.790000000    -3.322000000
C     0.730000000    -4.867000000    -2.662000000
H     1.491000000    -5.094000000    -3.411000000
H     0.158000000    -5.783000000    -2.504000000
C     1.454000000    -4.437000000    -1.347000000
C     2.717000000    -3.863000000    -1.435000000
H     3.248000000    -3.852000000    -2.383000000
C     0.802000000    -4.474000000    -0.089000000
C     1.527000000    -4.052000000     1.027000000
H     1.082000000    -4.072000000     2.019000000
C     2.859000000    -3.609000000     0.916000000
O     3.474000000    -3.089000000     2.055000000
C     3.308000000    -1.679000000     2.193000000
C     2.902000000    -1.365000000     3.610000000
C     1.966000000    -2.165000000     4.282000000
H     1.551000000    -3.066000000     3.836000000
C     3.473000000    -0.187000000     4.188000000
H     4.023000000     0.543000000     3.600000000
O     4.590000000    -1.145000000     1.891000000
H     2.491000000    -1.382000000     1.519000000
C     3.437000000    -3.513000000    -0.324000000
C     4.852000000    -2.859000000    -0.463000000
H     5.328000000    -3.339000000    -1.321000000
H     5.511000000    -3.084000000     0.378000000
C     4.903000000    -1.322000000    -0.470000000
C     4.657000000    -0.542000000     0.655000000
C     4.503000000     0.878000000     0.580000000
H     4.419000000     1.451000000     1.499000000
C     4.460000000     1.471000000    -0.678000000
O     4.186000000     2.836000000    -0.675000000
C     2.855000000     3.221000000    -0.958000000
H     2.147000000     2.418000000    -0.705000000
C     2.387000000     4.346000000    -0.110000000
C     1.579000000     5.353000000    -0.644000000
H     1.528000000     5.437000000    -1.726000000
C     2.575000000     4.365000000     1.291000000
H     3.169000000     3.560000000     1.716000000
C     1.876000000     5.296000000     2.057000000
O     1.773000000     5.093000000     3.456000000
C     1.199000000     6.354000000     1.519000000
H     0.779000000     7.189000000     2.073000000
C     0.940000000     6.287000000     0.139000000
O     0.088000000     7.249000000    -0.413000000
C    -0.911000000     6.907000000    -1.319000000
C    -1.940000000     6.064000000    -0.879000000
H    -2.038000000     5.699000000     0.140000000
C    -0.812000000     7.283000000    -2.666000000
H     0.041000000     7.876000000    -2.986000000
C    -1.786000000     6.818000000    -3.605000000
H    -1.671000000     7.083000000    -4.652000000
C    -2.859000000     6.057000000    -3.141000000
H    -3.634000000     5.694000000    -3.810000000
C    -2.947000000     5.693000000    -1.793000000
O    -4.016000000     4.843000000    -1.458000000
C    -4.108000000     3.486000000    -1.861000000
C    -5.293000000     2.757000000    -1.794000000
H    -6.040000000     3.351000000    -1.274000000
C    -5.423000000     1.446000000    -2.187000000
O    -6.608000000     0.769000000    -2.012000000
C    -6.904000000    -0.555000000    -1.724000000
C    -6.327000000    -1.275000000    -0.719000000
H    -5.655000000    -0.821000000     0.005000000
C    -7.813000000    -1.187000000    -2.510000000
H    -8.243000000    -0.566000000    -3.292000000
C    -8.154000000    -2.547000000    -2.238000000
H    -8.912000000    -2.903000000    -2.931000000
C    -7.673000000    -3.217000000    -1.160000000
H    -7.921000000    -4.270000000    -1.048000000
C    -6.866000000    -2.529000000    -0.263000000
O    -6.334000000    -3.330000000     0.705000000
C    -5.025000000    -3.411000000     1.068000000
C    -4.765000000    -3.571000000     2.393000000
H    -5.648000000    -3.710000000     3.012000000
C    -3.477000000    -3.716000000     2.815000000
O    -3.333000000    -4.017000000     4.127000000
C    -2.139000000    -4.272000000     4.797000000
C    -1.369000000    -3.231000000     5.327000000
H    -1.542000000    -2.176000000     5.129000000
C    -1.821000000    -5.596000000     5.149000000
H    -2.517000000    -6.348000000     4.783000000
C    -0.669000000    -5.860000000     5.860000000
H    -0.589000000    -6.928000000     6.047000000
C     0.173000000    -4.814000000     6.242000000
H     1.122000000    -5.103000000     6.687000000
C    -0.129000000    -3.511000000     6.005000000
O     0.781000000    -2.563000000     6.330000000
C     1.577000000    -1.782000000     5.530000000
C     2.107000000    -0.624000000     6.094000000
H     1.794000000    -0.356000000     7.100000000
C     3.014000000     0.129000000     5.440000000
O     3.451000000     1.327000000     6.045000000
C     3.660000000     2.536000000     5.392000000
C     4.927000000     3.060000000     5.454000000
H     5.740000000     2.468000000     5.869000000
C     5.134000000     4.285000000     4.757000000
H     6.157000000     4.638000000     4.646000000
C     4.094000000     4.949000000     4.151000000
H     4.237000000     5.900000000     3.644000000
C     2.783000000     4.458000000     4.201000000
C     2.589000000     3.161000000     4.719000000
H     1.651000000     2.612000000     4.717000000
C    -1.741000000     2.173000000     0.730000000
H    -2.124000000     3.186000000     0.826000000
C    -0.646000000     1.994000000    -0.104000000
H    -0.286000000     2.873000000    -0.631000000
C    -0.059000000     0.737000000    -0.264000000
H     0.795000000     0.742000000    -0.912000000
C    -0.459000000    -0.286000000     0.533000000
H    -0.062000000    -1.294000000     0.444000000
C    -1.654000000    -0.127000000     1.309000000
H    -2.019000000    -1.011000000     1.825000000
C    -2.263000000     1.112000000     1.483000000
C    -3.429000000     1.151000000     2.432000000
O    -3.909000000     0.165000000     2.889000000
O    -3.770000000     2.282000000     2.759000000
O    -7.140000000     4.638000000     0.370000000
H    -7.324000000     3.999000000    -0.318000000
H    -6.250000000     4.433000000     0.656000000
O    -0.891000000     0.232000000     5.817000000
H    -0.323000000     0.045000000     5.069000000
H    -0.507000000     1.011000000     6.221000000
O    -5.431000000     2.744000000     7.940000000
H    -4.615000000     3.233000000     8.038000000
H    -5.294000000     2.202000000     7.163000000
O    -8.004000000     0.600000000     6.360000000
H    -7.171000000     0.821000000     5.943000000
H    -7.771000000    -0.029000000     7.042000000
O    -6.232000000    -0.684000000     2.977000000
H    -6.069000000    -1.203000000     3.765000000
H    -5.372000000    -0.339000000     2.735000000
O    -9.362000000     2.190000000    -0.272000000
H    -8.937000000     1.648000000     0.392000000
H    -9.676000000     2.955000000     0.209000000
O    -3.314000000     6.561000000     3.055000000
H    -3.107000000     7.189000000     2.363000000
H    -2.503000000     6.481000000     3.557000000
O    -2.863000000     4.105000000     4.652000000
H    -3.176000000     4.906000000     4.234000000
H    -3.107000000     3.406000000     4.045000000
O    -2.582000000     3.881000000     7.471000000
H    -2.398000000     4.263000000     6.613000000
H    -2.664000000     4.635000000     8.056000000
O    -3.545000000    -0.502000000     5.265000000
H    -3.799000000    -0.290000000     4.367000000
H    -2.613000000    -0.288000000     5.306000000
O    -4.449000000     4.601000000     1.409000000
H    -4.109000000     5.380000000     1.850000000
H    -4.181000000     3.873000000     1.968000000
O    -6.346000000     2.743000000     3.198000000
H    -7.105000000     2.350000000     2.767000000
H    -5.634000000     2.121000000     3.042000000
O    -0.327000000     5.064000000     5.826000000
H    -0.446000000     4.461000000     5.092000000
H    -1.029000000     5.707000000     5.725000000
O    -8.540000000     0.726000000     1.925000000
H    -9.286000000     0.490000000     2.476000000
H    -7.874000000     0.069000000     2.128000000
O    -1.638000000    -0.398000000     8.743000000
H    -1.914000000     0.509000000     8.871000000
H    -1.443000000    -0.459000000     7.808000000
O    -5.887000000    -2.085000000     5.589000000
H    -5.515000000    -2.851000000     6.026000000
H    -5.130000000    -1.623000000     5.229000000
O    -5.231000000     1.497000000     5.726000000
H    -5.376000000     2.120000000     5.014000000
H    -4.654000000     0.833000000     5.350000000
O    -6.398000000     4.795000000     4.791000000
H    -6.397000000     4.111000000     4.121000000
H    -7.237000000     5.241000000     4.675000000
O    -6.224000000    -0.801000000     8.054000000
H    -5.594000000    -0.081000000     8.057000000
H    -6.024000000    -1.291000000     7.256000000
