215
-1426.10983
C    -3.392000000     0.843000000    -2.703000000
H    -3.397000000    -0.243000000    -2.646000000
C    -2.286000000     1.456000000    -3.326000000
C    -2.328000000     2.876000000    -3.195000000
H    -1.542000000     3.477000000    -3.647000000
C    -1.157000000     0.691000000    -3.966000000
O    -1.574000000    -0.487000000    -4.730000000
H    -0.682000000     0.337000000    -3.039000000
O    -0.235000000     1.447000000    -4.762000000
C     1.081000000     1.297000000    -4.466000000
C     1.573000000     2.420000000    -3.765000000
H     0.936000000     3.291000000    -3.638000000
C     2.834000000     2.223000000    -3.129000000
O     3.302000000     3.203000000    -2.323000000
C     3.546000000     1.022000000    -3.302000000
C     4.917000000     0.865000000    -2.669000000
H     5.384000000     0.191000000    -3.390000000
C     4.810000000     0.331000000    -1.249000000
C     4.630000000    -1.090000000    -1.048000000
H     4.905000000    -1.711000000    -1.897000000
H     5.527000000     1.768000000    -2.597000000
C     3.029000000    -0.012000000    -4.086000000
H     3.641000000    -0.888000000    -4.283000000
C     1.809000000     0.163000000    -4.779000000
C     1.103000000    -0.990000000    -5.556000000
H     1.855000000    -1.692000000    -5.925000000
H     0.486000000    -0.609000000    -6.372000000
C     0.257000000    -1.891000000    -4.649000000
C     0.869000000    -2.960000000    -3.976000000
H     1.939000000    -3.132000000    -4.061000000
C    -1.089000000    -1.625000000    -4.384000000
C    -1.872000000    -2.440000000    -3.565000000
H    -2.930000000    -2.340000000    -3.335000000
C    -1.283000000    -3.478000000    -2.868000000
O    -2.146000000    -4.216000000    -2.020000000
C    -1.839000000    -4.009000000    -0.571000000
C    -3.111000000    -3.894000000     0.296000000
C    -3.061000000    -3.958000000     1.706000000
H    -2.083000000    -4.086000000     2.163000000
C    -4.356000000    -3.817000000    -0.350000000
H    -4.546000000    -3.624000000    -1.403000000
O    -0.976000000    -5.095000000    -0.040000000
H    -1.233000000    -3.099000000    -0.444000000
C     0.080000000    -3.805000000    -3.070000000
C     0.670000000    -5.090000000    -2.473000000
H     1.570000000    -5.426000000    -2.992000000
H    -0.110000000    -5.851000000    -2.406000000
C     1.171000000    -4.750000000    -1.055000000
C     2.497000000    -4.204000000    -0.913000000
H     3.227000000    -4.106000000    -1.713000000
C     0.342000000    -4.795000000     0.050000000
C     0.834000000    -4.285000000     1.249000000
H     0.081000000    -4.219000000     2.030000000
C     2.127000000    -3.737000000     1.382000000
O     2.509000000    -3.116000000     2.545000000
C     2.477000000    -1.662000000     2.622000000
C     1.967000000    -1.198000000     4.019000000
C     0.948000000    -1.858000000     4.640000000
H     0.459000000    -2.691000000     4.141000000
C     2.451000000    -0.029000000     4.624000000
H     3.200000000     0.567000000     4.109000000
O     3.862000000    -1.213000000     2.472000000
H     1.810000000    -1.290000000     1.830000000
C     2.983000000    -3.794000000     0.277000000
C     4.325000000    -3.198000000     0.386000000
H     4.923000000    -3.600000000    -0.435000000
H     4.705000000    -3.448000000     1.378000000
C     4.374000000    -1.643000000     0.161000000
C     4.302000000    -0.780000000     1.279000000
C     4.427000000     0.632000000     1.098000000
H     4.195000000     1.348000000     1.882000000
C     4.637000000     1.181000000    -0.164000000
O     4.457000000     2.547000000    -0.340000000
C     3.219000000     2.991000000    -0.894000000
H     2.433000000     2.242000000    -0.716000000
C     2.641000000     4.136000000    -0.128000000
C     2.075000000     5.187000000    -0.829000000
H     2.074000000     5.180000000    -1.916000000
C     2.745000000     4.210000000     1.261000000
H     3.269000000     3.479000000     1.872000000
C     2.169000000     5.318000000     1.941000000
O     2.138000000     5.379000000     3.351000000
C     1.563000000     6.338000000     1.257000000
H     1.189000000     7.153000000     1.870000000
C     1.394000000     6.251000000    -0.136000000
O     0.710000000     7.271000000    -0.848000000
C    -0.177000000     6.951000000    -1.836000000
C    -1.134000000     6.000000000    -1.652000000
H    -1.132000000     5.479000000    -0.698000000
C    -0.245000000     7.670000000    -3.019000000
H     0.504000000     8.448000000    -3.147000000
C    -1.281000000     7.503000000    -3.995000000
H    -1.133000000     8.004000000    -4.949000000
C    -2.148000000     6.506000000    -3.787000000
H    -2.937000000     6.349000000    -4.519000000
C    -2.141000000     5.811000000    -2.570000000
O    -3.245000000     4.941000000    -2.279000000
C    -3.220000000     3.574000000    -2.421000000
C    -4.312000000     2.872000000    -1.831000000
H    -5.045000000     3.422000000    -1.247000000
C    -4.408000000     1.523000000    -1.933000000
O    -5.436000000     0.930000000    -1.291000000
C    -6.130000000    -0.217000000    -1.635000000
C    -6.197000000    -1.250000000    -0.698000000
H    -5.548000000    -1.186000000     0.171000000
C    -6.897000000    -0.280000000    -2.768000000
H    -6.894000000     0.553000000    -3.467000000
C    -7.767000000    -1.346000000    -3.026000000
H    -8.375000000    -1.301000000    -3.926000000
C    -7.815000000    -2.371000000    -2.031000000
H    -8.415000000    -3.252000000    -2.242000000
C    -6.975000000    -2.330000000    -0.911000000
O    -6.763000000    -3.509000000    -0.162000000
C    -5.520000000    -3.687000000     0.448000000
C    -5.422000000    -3.769000000     1.845000000
H    -6.307000000    -3.693000000     2.473000000
C    -4.218000000    -3.968000000     2.425000000
O    -4.163000000    -4.050000000     3.825000000
C    -2.927000000    -4.140000000     4.502000000
C    -2.345000000    -3.003000000     5.113000000
H    -2.887000000    -2.063000000     5.040000000
C    -2.328000000    -5.352000000     4.586000000
H    -2.847000000    -6.225000000     4.197000000
C    -1.131000000    -5.480000000     5.307000000
H    -0.612000000    -6.424000000     5.165000000
C    -0.653000000    -4.423000000     6.028000000
H     0.252000000    -4.542000000     6.619000000
C    -1.237000000    -3.153000000     5.869000000
O    -0.598000000    -2.156000000     6.530000000
C     0.405000000    -1.401000000     5.880000000
C     0.915000000    -0.259000000     6.427000000
H     0.444000000     0.167000000     7.309000000
C     1.901000000     0.439000000     5.770000000
O     2.321000000     1.600000000     6.319000000
C     2.905000000     2.681000000     5.708000000
C     4.260000000     2.964000000     6.025000000
H     4.724000000     2.261000000     6.711000000
C     4.963000000     4.022000000     5.355000000
H     6.012000000     4.097000000     5.628000000
C     4.167000000     4.779000000     4.465000000
H     4.531000000     5.657000000     3.939000000
C     2.871000000     4.569000000     4.257000000
C     2.182000000     3.550000000     4.845000000
H     1.154000000     3.309000000     4.586000000
C    -1.461000000     2.047000000     0.964000000
H    -1.465000000     3.123000000     1.119000000
C    -0.263000000     1.654000000     0.357000000
H     0.454000000     2.440000000     0.134000000
C     0.025000000     0.305000000     0.234000000
H     1.017000000    -0.008000000    -0.078000000
C    -0.927000000    -0.596000000     0.628000000
H    -0.673000000    -1.648000000     0.529000000
C    -2.147000000    -0.263000000     1.224000000
H    -2.760000000    -1.040000000     1.674000000
C    -2.394000000     1.125000000     1.362000000
C    -3.617000000     1.599000000     2.236000000
O    -4.247000000     0.692000000     2.760000000
O    -3.654000000     2.750000000     2.544000000
O    -6.216000000     4.940000000     5.417000000
H    -5.849000000     4.066000000     5.281000000
H    -6.604000000     4.903000000     6.291000000
O    -7.156000000     3.849000000     0.233000000
H    -7.501000000     3.136000000     0.771000000
H    -6.473000000     4.248000000     0.773000000
O    -1.432000000     2.476000000     5.119000000
H    -1.785000000     3.277000000     4.734000000
H    -0.894000000     2.093000000     4.426000000
O    -7.946000000     3.112000000    -2.248000000
H    -8.875000000     2.905000000    -2.151000000
H    -7.607000000     3.117000000    -1.353000000
O    -6.481000000    -0.545000000     2.403000000
H    -6.439000000    -1.102000000     3.181000000
H    -5.668000000    -0.041000000     2.426000000
O    -2.701000000     6.740000000     1.833000000
H    -2.633000000     7.208000000     1.001000000
H    -2.862000000     7.426000000     2.481000000
O    -2.223000000     4.620000000     3.467000000
H    -2.780000000     3.922000000     3.121000000
H    -2.411000000     5.375000000     2.910000000
O    -9.195000000    -1.176000000     2.002000000
H    -8.243000000    -1.166000000     2.099000000
H    -9.519000000    -0.700000000     2.766000000
O    -1.726000000     3.723000000     7.519000000
H    -1.628000000     3.297000000     6.667000000
H    -0.926000000     4.238000000     7.622000000
O    -3.207000000     0.268000000     5.129000000
H    -3.644000000     0.278000000     4.277000000
H    -2.623000000     1.026000000     5.108000000
O    -4.941000000     4.924000000     1.219000000
H    -4.304000000     5.593000000     1.472000000
H    -4.563000000     4.103000000     1.532000000
O    -6.431000000     2.498000000     3.778000000
H    -5.562000000     2.248000000     3.463000000
H    -7.003000000     1.787000000     3.490000000
O    -0.491000000     6.589000000     4.870000000
H    -0.737000000     5.738000000     4.506000000
H    -1.252000000     7.147000000     4.710000000
O    -8.780000000     1.505000000     1.249000000
H    -9.004000000     1.592000000     2.176000000
H    -8.579000000     0.576000000     1.138000000
O    -2.796000000    -0.641000000     7.949000000
H    -2.063000000    -0.162000000     8.337000000
H    -2.809000000    -0.358000000     7.035000000
O    -5.082000000     6.724000000     3.844000000
H    -5.634000000     6.552000000     3.080000000
H    -5.383000000     6.098000000     4.503000000
O    -6.520000000    -2.184000000     4.626000000
H    -7.336000000    -2.657000000     4.790000000
H    -5.844000000    -2.861000000     4.641000000
O    -5.937000000     0.600000000     6.654000000
H    -6.047000000     0.543000000     5.705000000
H    -5.211000000     0.007000000     6.848000000
O    -8.956000000     4.214000000     4.410000000
H    -8.124000000     3.894000000     4.061000000
H    -9.335000000     4.725000000     3.694000000
