215
-1463.32406
C    -3.700000000     0.812000000    -2.714000000
H    -3.876000000    -0.257000000    -2.631000000
C    -2.587000000     1.345000000    -3.382000000
C    -2.525000000     2.752000000    -3.576000000
H    -1.643000000     3.206000000    -4.019000000
C    -1.447000000     0.471000000    -3.820000000
O    -1.943000000    -0.772000000    -4.396000000
H    -0.870000000     0.242000000    -2.911000000
O    -0.471000000     1.202000000    -4.620000000
C     0.862000000     1.027000000    -4.348000000
C     1.528000000     2.192000000    -3.855000000
H     0.902000000     3.079000000    -3.816000000
C     2.870000000     2.070000000    -3.410000000
O     3.230000000     3.065000000    -2.590000000
C     3.511000000     0.813000000    -3.563000000
C     4.950000000     0.711000000    -2.947000000
H     5.610000000    -0.075000000    -3.320000000
C     4.684000000     0.314000000    -1.488000000
C     4.622000000    -1.006000000    -1.170000000
H     4.660000000    -1.692000000    -2.012000000
H     5.411000000     1.699000000    -2.990000000
C     2.799000000    -0.217000000    -4.181000000
H     3.285000000    -1.173000000    -4.362000000
C     1.492000000    -0.185000000    -4.523000000
C     0.819000000    -1.383000000    -5.195000000
H     1.676000000    -1.914000000    -5.615000000
H     0.239000000    -0.989000000    -6.032000000
C    -0.016000000    -2.218000000    -4.235000000
C     0.546000000    -3.321000000    -3.591000000
H     1.588000000    -3.567000000    -3.780000000
C    -1.337000000    -1.938000000    -3.909000000
C    -2.114000000    -2.829000000    -3.126000000
H    -3.134000000    -2.565000000    -2.860000000
C    -1.454000000    -3.848000000    -2.472000000
O    -2.139000000    -4.535000000    -1.503000000
C    -1.792000000    -4.139000000    -0.143000000
C    -3.004000000    -3.930000000     0.773000000
C    -2.922000000    -4.173000000     2.126000000
H    -1.985000000    -4.513000000     2.560000000
C    -4.245000000    -3.587000000     0.256000000
H    -4.389000000    -3.236000000    -0.763000000
O    -0.885000000    -5.126000000     0.413000000
H    -1.249000000    -3.187000000    -0.234000000
C    -0.100000000    -4.120000000    -2.635000000
C     0.675000000    -5.271000000    -2.027000000
H     1.455000000    -5.589000000    -2.721000000
H     0.039000000    -6.143000000    -1.861000000
C     1.218000000    -4.783000000    -0.715000000
C     2.508000000    -4.220000000    -0.720000000
H     3.181000000    -4.209000000    -1.573000000
C     0.463000000    -4.811000000     0.450000000
C     0.979000000    -4.271000000     1.599000000
H     0.346000000    -4.284000000     2.482000000
C     2.197000000    -3.618000000     1.574000000
O     2.483000000    -2.783000000     2.672000000
C     2.547000000    -1.348000000     2.639000000
C     1.982000000    -0.784000000     3.947000000
C     0.984000000    -1.450000000     4.623000000
H     0.423000000    -2.227000000     4.110000000
C     2.462000000     0.436000000     4.422000000
H     3.042000000     1.034000000     3.722000000
O     3.942000000    -0.941000000     2.416000000
H     2.010000000    -0.938000000     1.770000000
C     2.965000000    -3.540000000     0.363000000
C     4.379000000    -2.955000000     0.405000000
H     5.072000000    -3.446000000    -0.282000000
H     4.778000000    -3.112000000     1.409000000
C     4.365000000    -1.486000000     0.118000000
C     4.231000000    -0.581000000     1.137000000
C     4.341000000     0.807000000     0.815000000
H     4.280000000     1.506000000     1.645000000
C     4.568000000     1.246000000    -0.467000000
O     4.396000000     2.615000000    -0.717000000
C     3.106000000     2.923000000    -1.216000000
H     2.429000000     2.077000000    -1.027000000
C     2.468000000     4.154000000    -0.532000000
C     1.540000000     4.977000000    -1.173000000
H     1.158000000     4.701000000    -2.152000000
C     2.855000000     4.363000000     0.801000000
H     3.581000000     3.707000000     1.275000000
C     2.408000000     5.525000000     1.463000000
O     2.847000000     5.783000000     2.802000000
C     1.527000000     6.418000000     0.782000000
H     1.174000000     7.279000000     1.342000000
C     1.076000000     6.155000000    -0.499000000
O     0.328000000     7.085000000    -1.101000000
C    -0.406000000     6.798000000    -2.223000000
C    -1.556000000     6.046000000    -2.081000000
H    -1.832000000     5.643000000    -1.110000000
C     0.041000000     7.194000000    -3.513000000
H     1.008000000     7.652000000    -3.706000000
C    -0.753000000     6.960000000    -4.663000000
H    -0.402000000     7.331000000    -5.622000000
C    -1.923000000     6.255000000    -4.504000000
H    -2.513000000     5.986000000    -5.376000000
C    -2.298000000     5.818000000    -3.257000000
O    -3.426000000     4.972000000    -3.217000000
C    -3.500000000     3.610000000    -3.118000000
C    -4.599000000     3.029000000    -2.450000000
H    -5.311000000     3.733000000    -2.028000000
C    -4.628000000     1.712000000    -2.156000000
O    -5.767000000     1.235000000    -1.470000000
C    -6.327000000    -0.025000000    -1.458000000
C    -6.101000000    -0.997000000    -0.356000000
H    -5.461000000    -0.757000000     0.488000000
C    -7.213000000    -0.289000000    -2.472000000
H    -7.479000000     0.442000000    -3.231000000
C    -8.041000000    -1.421000000    -2.391000000
H    -8.812000000    -1.599000000    -3.136000000
C    -7.934000000    -2.381000000    -1.380000000
H    -8.532000000    -3.282000000    -1.269000000
C    -6.905000000    -2.180000000    -0.364000000
O    -6.626000000    -3.106000000     0.647000000
C    -5.374000000    -3.439000000     1.095000000
C    -5.261000000    -3.870000000     2.410000000
H    -6.152000000    -3.963000000     3.025000000
C    -4.044000000    -4.141000000     2.990000000
O    -3.886000000    -4.444000000     4.349000000
C    -2.718000000    -4.210000000     5.057000000
C    -2.253000000    -2.908000000     5.353000000
H    -2.718000000    -1.977000000     5.037000000
C    -1.950000000    -5.295000000     5.511000000
H    -2.344000000    -6.294000000     5.344000000
C    -0.829000000    -5.105000000     6.303000000
H    -0.289000000    -5.993000000     6.622000000
C    -0.321000000    -3.833000000     6.458000000
H     0.622000000    -3.672000000     6.975000000
C    -1.033000000    -2.753000000     6.043000000
O    -0.596000000    -1.484000000     6.424000000
C     0.545000000    -0.945000000     5.868000000
C     1.042000000     0.253000000     6.359000000
H     0.547000000     0.738000000     7.196000000
C     2.056000000     0.923000000     5.693000000
O     2.311000000     2.181000000     6.110000000
C     3.120000000     3.069000000     5.335000000
C     4.536000000     2.883000000     5.303000000
H     4.991000000     2.049000000     5.832000000
C     5.328000000     3.523000000     4.367000000
H     6.388000000     3.388000000     4.169000000
C     4.725000000     4.496000000     3.508000000
H     5.321000000     5.101000000     2.829000000
C     3.325000000     4.698000000     3.576000000
C     2.504000000     3.973000000     4.469000000
H     1.429000000     4.138000000     4.457000000
C    -1.793000000     1.700000000    -0.100000000
H    -2.247000000     2.627000000    -0.441000000
C    -0.457000000     1.360000000    -0.509000000
H     0.127000000     1.957000000    -1.206000000
C     0.155000000     0.304000000     0.082000000
H     1.256000000     0.222000000    -0.084000000
C    -0.542000000    -0.535000000     0.945000000
H    -0.060000000    -1.437000000     1.314000000
C    -1.855000000    -0.198000000     1.367000000
H    -2.377000000    -0.899000000     2.013000000
C    -2.411000000     0.994000000     0.887000000
C    -3.764000000     1.427000000     1.431000000
O    -4.330000000     0.702000000     2.235000000
O    -4.110000000     2.588000000     1.346000000
O    -5.257000000     4.614000000     5.794000000
H    -5.029000000     3.943000000     5.150000000
H    -5.293000000     4.144000000     6.627000000
O    -7.522000000     4.870000000     0.985000000
H    -7.436000000     3.936000000     1.177000000
H    -6.661000000     5.128000000     0.657000000
O    -1.431000000     2.747000000     4.432000000
H    -1.796000000     3.421000000     3.858000000
H    -0.841000000     2.247000000     3.868000000
O    -6.776000000    -0.274000000     2.774000000
H    -6.931000000    -0.838000000     3.531000000
H    -5.825000000    -0.264000000     2.672000000
O    -3.060000000     6.996000000     0.986000000
H    -2.706000000     7.686000000     0.425000000
H    -3.703000000     7.442000000     1.537000000
O    -9.279000000     1.561000000     0.022000000
H    -9.628000000     0.949000000     0.670000000
H    -8.685000000     2.123000000     0.520000000
O    -2.331000000     4.494000000     2.362000000
H    -2.890000000     3.748000000     2.143000000
H    -2.765000000     5.245000000     1.956000000
O    -9.527000000    -0.456000000     1.838000000
H    -8.575000000    -0.556000000     1.873000000
H    -9.800000000    -0.447000000     2.756000000
O    -3.199000000     6.519000000     5.798000000
H    -4.020000000     6.028000000     5.760000000
H    -2.613000000     6.050000000     5.204000000
O    -3.524000000     0.730000000     4.947000000
H    -4.206000000     0.571000000     4.295000000
H    -2.902000000     1.309000000     4.507000000
O    -4.891000000     4.926000000     0.125000000
H    -4.216000000     5.500000000     0.486000000
H    -4.610000000     4.044000000     0.369000000
O    -5.531000000     3.035000000     3.555000000
H    -4.824000000     2.807000000     2.952000000
H    -6.331000000     2.911000000     3.044000000
O    -0.672000000     6.113000000     3.635000000
H    -1.342000000     5.528000000     3.280000000
H    -0.736000000     6.904000000     3.099000000
O    -0.928000000     3.785000000     6.698000000
H    -0.953000000     3.355000000     5.843000000
H    -0.383000000     4.560000000     6.560000000
O    -6.881000000     2.249000000     1.142000000
H    -6.875000000     1.392000000     1.568000000
H    -6.055000000     2.281000000     0.658000000
O    -3.351000000    -0.064000000     7.377000000
H    -2.431000000     0.114000000     7.575000000
H    -3.467000000     0.249000000     6.480000000
O    -6.100000000     6.285000000     4.042000000
H    -5.887000000     5.691000000     4.761000000
H    -7.008000000     6.076000000     3.820000000
O    -6.297000000    -1.576000000     5.173000000
H    -7.034000000    -2.031000000     4.767000000
H    -5.769000000    -2.274000000     5.562000000
O    -5.570000000     7.624000000    -1.436000000
H    -4.842000000     7.006000000    -1.363000000
H    -6.349000000     7.098000000    -1.258000000
