215
-1462.13920
C    -3.392000000     0.964000000    -2.606000000
H    -3.426000000    -0.081000000    -2.311000000
C    -2.273000000     1.473000000    -3.326000000
C    -2.152000000     2.817000000    -3.587000000
H    -1.361000000     3.268000000    -4.181000000
C    -1.226000000     0.457000000    -3.748000000
O    -1.829000000    -0.814000000    -4.241000000
H    -0.607000000     0.279000000    -2.857000000
O    -0.368000000     1.037000000    -4.720000000
C     0.985000000     0.854000000    -4.589000000
C     1.673000000     1.923000000    -4.086000000
H     1.133000000     2.846000000    -3.891000000
C     2.953000000     1.746000000    -3.595000000
O     3.424000000     2.761000000    -2.765000000
C     3.529000000     0.488000000    -3.580000000
C     4.863000000     0.232000000    -2.928000000
H     5.518000000    -0.476000000    -3.441000000
C     4.812000000    -0.199000000    -1.421000000
C     4.873000000    -1.556000000    -1.173000000
H     4.841000000    -2.287000000    -1.977000000
H     5.464000000     1.144000000    -2.915000000
C     2.836000000    -0.604000000    -4.104000000
H     3.323000000    -1.576000000    -4.094000000
C     1.553000000    -0.461000000    -4.591000000
C     0.874000000    -1.658000000    -5.244000000
H     1.523000000    -2.402000000    -5.711000000
H     0.135000000    -1.308000000    -5.967000000
C     0.065000000    -2.355000000    -4.220000000
C     0.584000000    -3.482000000    -3.652000000
H     1.554000000    -3.909000000    -3.894000000
C    -1.232000000    -1.936000000    -3.787000000
C    -1.941000000    -2.662000000    -2.817000000
H    -2.898000000    -2.303000000    -2.446000000
C    -1.466000000    -3.864000000    -2.372000000
O    -2.181000000    -4.529000000    -1.406000000
C    -1.855000000    -4.101000000    -0.045000000
C    -3.084000000    -3.765000000     0.800000000
C    -2.989000000    -3.751000000     2.222000000
H    -2.007000000    -3.944000000     2.646000000
C    -4.307000000    -3.555000000     0.179000000
H    -4.396000000    -3.409000000    -0.894000000
O    -1.030000000    -5.078000000     0.566000000
H    -1.298000000    -3.153000000    -0.078000000
C    -0.163000000    -4.239000000    -2.737000000
C     0.516000000    -5.379000000    -1.912000000
H     1.187000000    -5.882000000    -2.612000000
H    -0.258000000    -6.123000000    -1.713000000
C     1.141000000    -4.938000000    -0.572000000
C     2.471000000    -4.552000000    -0.470000000
H     3.146000000    -4.616000000    -1.319000000
C     0.372000000    -4.890000000     0.568000000
C     0.905000000    -4.269000000     1.754000000
H     0.260000000    -4.118000000     2.615000000
C     2.181000000    -3.789000000     1.741000000
O     2.562000000    -3.114000000     2.877000000
C     2.821000000    -1.701000000     2.901000000
C     2.348000000    -1.137000000     4.194000000
C     1.391000000    -1.739000000     5.016000000
H     0.990000000    -2.713000000     4.750000000
C     2.791000000     0.162000000     4.521000000
H     3.541000000     0.686000000     3.934000000
O     4.201000000    -1.451000000     2.499000000
H     2.135000000    -1.260000000     2.163000000
C     3.009000000    -3.879000000     0.611000000
C     4.498000000    -3.463000000     0.581000000
H     5.112000000    -4.073000000    -0.086000000
H     5.045000000    -3.608000000     1.515000000
C     4.648000000    -1.987000000     0.183000000
C     4.416000000    -1.041000000     1.179000000
C     4.456000000     0.310000000     0.864000000
H     4.326000000     1.068000000     1.631000000
C     4.591000000     0.726000000    -0.426000000
O     4.341000000     2.064000000    -0.656000000
C     3.188000000     2.574000000    -1.314000000
H     2.464000000     1.761000000    -1.154000000
C     2.668000000     3.870000000    -0.701000000
C     2.078000000     4.852000000    -1.532000000
H     2.204000000     4.916000000    -2.610000000
C     2.440000000     3.899000000     0.666000000
H     2.844000000     3.128000000     1.318000000
C     1.860000000     5.008000000     1.308000000
O     1.756000000     5.262000000     2.627000000
C     1.270000000     5.921000000     0.446000000
H     0.739000000     6.787000000     0.833000000
C     1.339000000     5.868000000    -0.956000000
O     0.831000000     6.947000000    -1.633000000
C    -0.082000000     6.820000000    -2.677000000
C    -1.102000000     5.873000000    -2.612000000
H    -1.166000000     5.146000000    -1.807000000
C    -0.017000000     7.719000000    -3.719000000
H     0.827000000     8.402000000    -3.767000000
C    -1.127000000     7.827000000    -4.595000000
H    -1.097000000     8.513000000    -5.438000000
C    -2.264000000     6.964000000    -4.405000000
H    -3.106000000     7.132000000    -5.073000000
C    -2.164000000     5.950000000    -3.457000000
O    -3.195000000     5.047000000    -3.393000000
C    -3.117000000     3.684000000    -3.140000000
C    -4.219000000     3.224000000    -2.442000000
H    -5.046000000     3.843000000    -2.105000000
C    -4.367000000     1.840000000    -2.162000000
O    -5.438000000     1.444000000    -1.471000000
C    -6.104000000     0.253000000    -1.641000000
C    -5.996000000    -0.704000000    -0.613000000
H    -5.412000000    -0.443000000     0.266000000
C    -6.899000000     0.002000000    -2.754000000
H    -7.057000000     0.700000000    -3.572000000
C    -7.636000000    -1.180000000    -2.911000000
H    -8.286000000    -1.342000000    -3.767000000
C    -7.502000000    -2.103000000    -1.859000000
H    -7.978000000    -3.080000000    -1.874000000
C    -6.671000000    -1.891000000    -0.742000000
O    -6.601000000    -2.834000000     0.265000000
C    -5.419000000    -3.233000000     0.953000000
C    -5.332000000    -3.114000000     2.302000000
H    -6.204000000    -2.923000000     2.921000000
C    -4.137000000    -3.390000000     2.972000000
O    -4.132000000    -3.303000000     4.313000000
C    -3.041000000    -3.432000000     5.146000000
C    -2.105000000    -2.427000000     5.397000000
H    -2.097000000    -1.568000000     4.731000000
C    -2.992000000    -4.580000000     5.945000000
H    -3.694000000    -5.397000000     5.797000000
C    -2.025000000    -4.764000000     6.822000000
H    -1.886000000    -5.768000000     7.216000000
C    -1.200000000    -3.681000000     7.192000000
H    -0.434000000    -3.741000000     7.961000000
C    -1.067000000    -2.576000000     6.355000000
O    -0.342000000    -1.503000000     6.672000000
C     0.740000000    -1.023000000     5.967000000
C     1.134000000     0.261000000     6.265000000
H     0.550000000     0.881000000     6.940000000
C     2.189000000     0.807000000     5.579000000
O     2.694000000     2.048000000     6.002000000
C     3.143000000     3.046000000     5.227000000
C     4.437000000     3.507000000     5.304000000
H     4.991000000     2.844000000     5.963000000
C     4.922000000     4.466000000     4.436000000
H     5.941000000     4.830000000     4.541000000
C     3.977000000     4.999000000     3.562000000
H     4.326000000     5.808000000     2.925000000
C     2.620000000     4.601000000     3.482000000
C     2.198000000     3.569000000     4.338000000
H     1.245000000     3.076000000     4.164000000
C    -1.251000000     1.511000000     0.184000000
H    -1.780000000     2.389000000    -0.177000000
C    -0.166000000     1.224000000    -0.600000000
H     0.081000000     1.868000000    -1.441000000
C     0.511000000    -0.025000000    -0.263000000
H     1.358000000    -0.382000000    -0.878000000
C     0.032000000    -0.878000000     0.711000000
H     0.411000000    -1.882000000     0.883000000
C    -1.139000000    -0.600000000     1.439000000
H    -1.475000000    -1.264000000     2.232000000
C    -1.739000000     0.652000000     1.230000000
C    -2.903000000     1.058000000     2.099000000
O    -3.341000000     0.296000000     2.931000000
O    -3.242000000     2.242000000     2.187000000
O    -3.219000000     7.641000000     3.686000000
H    -3.644000000     6.792000000     3.811000000
H    -2.325000000     7.424000000     3.421000000
O    -7.382000000     4.005000000     0.348000000
H    -7.501000000     3.102000000     0.053000000
H    -6.673000000     3.957000000     0.989000000
O    -1.081000000     3.557000000     5.111000000
H    -1.991000000     3.791000000     4.926000000
H    -0.680000000     3.452000000     4.249000000
O    -5.630000000    -0.501000000     3.880000000
H    -5.287000000    -0.723000000     4.746000000
H    -4.852000000    -0.306000000     3.357000000
O    -1.645000000     7.400000000     0.763000000
H    -1.596000000     8.207000000     0.251000000
H    -2.337000000     6.891000000     0.342000000
O    -8.494000000     1.371000000     0.708000000
H    -8.269000000     0.523000000     0.325000000
H    -7.717000000     1.621000000     1.208000000
O    -1.324000000     4.384000000     2.220000000
H    -1.844000000     3.665000000     1.860000000
H    -1.546000000     5.137000000     1.672000000
O    -8.105000000    -1.437000000     3.589000000
H    -7.228000000    -1.057000000     3.548000000
H    -8.618000000    -0.803000000     4.090000000
O    -2.569000000     3.873000000     8.024000000
H    -3.232000000     3.372000000     7.549000000
H    -1.892000000     4.053000000     7.372000000
O    -1.878000000     0.956000000     5.218000000
H    -2.469000000     0.699000000     4.510000000
H    -1.649000000     1.864000000     5.022000000
O    -4.798000000     4.306000000     1.789000000
H    -4.435000000     4.905000000     1.136000000
H    -4.118000000     3.643000000     1.910000000
O    -3.929000000     3.929000000     5.005000000
H    -4.537000000     4.553000000     4.608000000
H    -4.096000000     3.107000000     4.545000000
O     0.231000000     4.310000000     7.335000000
H    -0.042000000     3.867000000     6.531000000
H     0.912000000     4.920000000     7.052000000
O    -6.163000000     1.884000000     2.270000000
H    -6.213000000     1.195000000     2.932000000
H    -5.259000000     2.196000000     2.316000000
O    -2.049000000     0.103000000     8.231000000
H    -1.396000000     0.702000000     8.593000000
H    -1.728000000    -0.099000000     7.352000000
O    -5.462000000     5.937000000     3.843000000
H    -5.128000000     5.477000000     3.073000000
H    -6.200000000     6.450000000     3.515000000
O    -3.913000000     5.735000000    -0.540000000
H    -3.494000000     5.501000000    -1.368000000
H    -4.646000000     6.296000000    -0.792000000
O    -8.665000000     3.340000000     4.734000000
H    -8.016000000     3.677000000     4.116000000
H    -9.506000000     3.633000000     4.383000000
O    -4.714000000    -0.067000000     8.147000000
H    -3.789000000     0.121000000     7.988000000
H    -4.713000000    -0.650000000     8.907000000
