215
-1473.34289
C    -3.652000000     1.029000000    -3.166000000
H    -3.650000000     0.001000000    -2.813000000
C    -2.435000000     1.554000000    -3.669000000
C    -2.303000000     2.929000000    -3.752000000
H    -1.383000000     3.384000000    -4.108000000
C    -1.240000000     0.658000000    -3.917000000
O    -1.488000000    -0.519000000    -4.603000000
H    -0.733000000     0.427000000    -2.968000000
O    -0.266000000     1.203000000    -4.790000000
C     1.046000000     1.009000000    -4.426000000
C     1.659000000     2.006000000    -3.744000000
H     1.167000000     2.973000000    -3.688000000
C     2.925000000     1.873000000    -3.127000000
O     3.379000000     2.935000000    -2.305000000
C     3.607000000     0.712000000    -3.319000000
C     4.952000000     0.506000000    -2.610000000
H     5.553000000    -0.223000000    -3.157000000
C     4.767000000     0.169000000    -1.138000000
C     4.794000000    -1.218000000    -0.878000000
H     5.096000000    -1.935000000    -1.637000000
H     5.468000000     1.469000000    -2.616000000
C     3.032000000    -0.297000000    -4.127000000
H     3.596000000    -1.224000000    -4.167000000
C     1.713000000    -0.181000000    -4.609000000
C     1.097000000    -1.359000000    -5.336000000
H     1.921000000    -1.941000000    -5.755000000
H     0.515000000    -0.981000000    -6.179000000
C     0.259000000    -2.120000000    -4.351000000
C     0.653000000    -3.278000000    -3.706000000
H     1.662000000    -3.631000000    -3.901000000
C    -1.027000000    -1.631000000    -4.018000000
C    -1.746000000    -2.187000000    -2.958000000
H    -2.713000000    -1.783000000    -2.670000000
C    -1.362000000    -3.387000000    -2.348000000
O    -2.188000000    -3.972000000    -1.413000000
C    -1.812000000    -3.676000000    -0.071000000
C    -3.094000000    -3.363000000     0.714000000
C    -3.068000000    -3.508000000     2.068000000
H    -2.187000000    -3.723000000     2.666000000
C    -4.283000000    -3.000000000     0.043000000
H    -4.374000000    -2.879000000    -1.034000000
O    -1.071000000    -4.817000000     0.548000000
H    -1.225000000    -2.747000000    -0.013000000
C    -0.147000000    -3.962000000    -2.801000000
C     0.450000000    -5.123000000    -2.059000000
H     1.255000000    -5.574000000    -2.643000000
H    -0.265000000    -5.938000000    -1.923000000
C     0.999000000    -4.653000000    -0.682000000
C     2.323000000    -4.251000000    -0.516000000
H     2.959000000    -4.244000000    -1.397000000
C     0.248000000    -4.665000000     0.501000000
C     0.853000000    -4.245000000     1.712000000
H     0.259000000    -3.973000000     2.580000000
C     2.170000000    -3.812000000     1.823000000
O     2.521000000    -3.121000000     2.978000000
C     2.608000000    -1.717000000     2.976000000
C     2.069000000    -1.163000000     4.266000000
C     1.028000000    -1.826000000     4.878000000
H     0.677000000    -2.776000000     4.483000000
C     2.514000000     0.076000000     4.783000000
H     3.233000000     0.700000000     4.258000000
O     3.943000000    -1.343000000     2.676000000
H     1.949000000    -1.378000000     2.163000000
C     2.922000000    -3.847000000     0.669000000
C     4.349000000    -3.294000000     0.665000000
H     5.078000000    -3.826000000     0.050000000
H     4.806000000    -3.500000000     1.635000000
C     4.525000000    -1.732000000     0.389000000
C     4.325000000    -0.800000000     1.433000000
C     4.436000000     0.560000000     1.248000000
H     4.160000000     1.292000000     2.003000000
C     4.614000000     1.053000000    -0.092000000
O     4.409000000     2.412000000    -0.210000000
C     3.137000000     2.734000000    -0.888000000
H     2.424000000     1.897000000    -0.861000000
C     2.580000000     3.938000000    -0.210000000
C     1.943000000     4.883000000    -0.989000000
H     1.972000000     4.743000000    -2.067000000
C     2.485000000     4.021000000     1.211000000
H     2.866000000     3.187000000     1.795000000
C     1.789000000     5.097000000     1.822000000
O     1.729000000     5.306000000     3.221000000
C     1.210000000     6.074000000     1.001000000
H     0.739000000     6.905000000     1.521000000
C     1.220000000     5.956000000    -0.407000000
O     0.505000000     6.930000000    -1.167000000
C    -0.222000000     6.767000000    -2.342000000
C    -1.381000000     5.993000000    -2.324000000
H    -1.829000000     5.544000000    -1.441000000
C     0.288000000     7.270000000    -3.516000000
H     1.272000000     7.729000000    -3.567000000
C    -0.366000000     7.065000000    -4.713000000
H     0.104000000     7.359000000    -5.648000000
C    -1.575000000     6.483000000    -4.716000000
H    -2.163000000     6.281000000    -5.607000000
C    -2.026000000     5.813000000    -3.558000000
O    -3.226000000     5.149000000    -3.616000000
C    -3.357000000     3.785000000    -3.406000000
C    -4.640000000     3.237000000    -3.178000000
H    -5.435000000     3.893000000    -2.834000000
C    -4.814000000     1.814000000    -3.012000000
O    -6.077000000     1.353000000    -2.424000000
C    -6.405000000     0.049000000    -2.398000000
C    -6.361000000    -0.546000000    -1.175000000
H    -6.153000000     0.098000000    -0.324000000
C    -6.662000000    -0.672000000    -3.529000000
H    -6.637000000    -0.170000000    -4.492000000
C    -6.954000000    -2.040000000    -3.358000000
H    -7.286000000    -2.618000000    -4.216000000
C    -6.981000000    -2.676000000    -2.137000000
H    -7.259000000    -3.714000000    -1.975000000
C    -6.700000000    -1.901000000    -1.048000000
O    -6.686000000    -2.517000000     0.218000000
C    -5.469000000    -2.932000000     0.829000000
C    -5.481000000    -3.045000000     2.224000000
H    -6.398000000    -2.956000000     2.800000000
C    -4.239000000    -3.392000000     2.798000000
O    -4.269000000    -3.600000000     4.202000000
C    -3.103000000    -3.886000000     4.905000000
C    -2.335000000    -2.828000000     5.422000000
H    -2.666000000    -1.809000000     5.235000000
C    -2.675000000    -5.165000000     5.014000000
H    -3.260000000    -5.939000000     4.525000000
C    -1.484000000    -5.437000000     5.662000000
H    -1.211000000    -6.489000000     5.677000000
C    -0.803000000    -4.415000000     6.402000000
H     0.142000000    -4.542000000     6.923000000
C    -1.217000000    -3.101000000     6.186000000
O    -0.499000000    -2.057000000     6.749000000
C     0.495000000    -1.313000000     6.066000000
C     1.058000000    -0.174000000     6.645000000
H     0.729000000     0.077000000     7.650000000
C     1.960000000     0.564000000     5.972000000
O     2.390000000     1.756000000     6.494000000
C     2.937000000     2.804000000     5.705000000
C     4.278000000     3.171000000     5.735000000
H     4.913000000     2.522000000     6.332000000
C     4.742000000     4.265000000     5.000000000
H     5.782000000     4.507000000     5.207000000
C     3.886000000     4.954000000     4.132000000
H     4.207000000     5.774000000     3.493000000
C     2.558000000     4.634000000     4.074000000
C     2.129000000     3.564000000     4.826000000
H     1.067000000     3.375000000     4.696000000
C    -2.281000000     1.963000000     0.386000000
H    -2.950000000     2.797000000     0.190000000
C    -1.160000000     1.767000000    -0.277000000
H    -0.889000000     2.441000000    -1.084000000
C    -0.468000000     0.607000000    -0.069000000
H     0.468000000     0.582000000    -0.649000000
C    -0.816000000    -0.310000000     0.872000000
H    -0.219000000    -1.210000000     0.996000000
C    -1.991000000    -0.136000000     1.535000000
H    -2.226000000    -0.853000000     2.318000000
C    -2.708000000     1.001000000     1.348000000
C    -4.056000000     1.207000000     2.090000000
O    -4.419000000     0.377000000     2.937000000
O    -4.672000000     2.246000000     1.898000000
O    -7.006000000     4.728000000    -0.921000000
H    -7.873000000     4.717000000    -1.327000000
H    -7.023000000     4.001000000    -0.298000000
O    -3.531000000     5.291000000     4.791000000
H    -3.573000000     6.228000000     4.978000000
H    -3.081000000     5.235000000     3.947000000
O    -6.975000000     0.056000000     3.067000000
H    -6.977000000    -0.556000000     3.803000000
H    -6.059000000     0.317000000     2.975000000
O    -2.026000000     7.261000000     2.560000000
H    -1.815000000     7.692000000     1.732000000
H    -2.518000000     6.481000000     2.305000000
O    -9.820000000     2.546000000     4.393000000
H    -9.338000000     3.271000000     3.996000000
H    -9.221000000     2.191000000     5.050000000
O    -4.239000000     4.858000000     1.978000000
H    -4.468000000     3.931000000     1.916000000
H    -4.114000000     5.135000000     1.070000000
O    -8.746000000     0.369000000     1.200000000
H    -8.209000000     0.065000000     1.932000000
H    -9.597000000     0.564000000     1.592000000
O    -2.425000000     0.771000000     6.676000000
H    -2.084000000     1.569000000     6.273000000
H    -1.650000000     0.232000000     6.835000000
O    -4.901000000     2.830000000     7.291000000
H    -4.803000000     2.583000000     6.371000000
H    -5.574000000     3.510000000     7.286000000
O    -4.680000000     0.007000000     5.570000000
H    -4.783000000     0.289000000     4.662000000
H    -3.857000000     0.405000000     5.853000000
O    -6.365000000     6.612000000     2.753000000
H    -6.545000000     6.749000000     1.823000000
H    -5.658000000     5.966000000     2.768000000
O    -5.169000000     2.945000000     4.557000000
H    -4.765000000     3.811000000     4.615000000
H    -5.133000000     2.726000000     3.626000000
O    -1.714000000     3.428000000     5.943000000
H    -2.483000000     3.907000000     5.635000000
H    -1.127000000     4.107000000     6.277000000
O    -7.247000000     2.705000000     0.888000000
H    -7.718000000     1.875000000     0.969000000
H    -6.398000000     2.540000000     1.297000000
O    -9.401000000     4.124000000     1.825000000
H    -8.705000000     3.545000000     1.513000000
H    -9.707000000     4.576000000     1.039000000
O    -7.084000000    -1.448000000     5.446000000
H    -6.909000000    -2.389000000     5.422000000
H    -6.248000000    -1.055000000     5.694000000
O   -10.029000000    -0.574000000    -1.010000000
H    -9.365000000    -0.196000000    -0.433000000
H   -10.862000000    -0.276000000    -0.643000000
O    -4.382000000     5.603000000    -0.596000000
H    -5.232000000     5.202000000    -0.777000000
H    -4.234000000     6.194000000    -1.335000000
O    -7.385000000     1.570000000     5.675000000
H    -6.636000000     1.908000000     5.184000000
H    -7.463000000     0.658000000     5.395000000
