215
-1461.01624
C    -4.022000000     1.182000000    -3.703000000
H    -4.274000000     0.133000000    -3.838000000
C    -2.748000000     1.784000000    -3.796000000
C    -2.607000000     3.149000000    -3.460000000
H    -1.634000000     3.632000000    -3.496000000
C    -1.512000000     0.936000000    -3.994000000
O    -1.840000000    -0.248000000    -4.738000000
H    -1.150000000     0.599000000    -3.011000000
O    -0.530000000     1.690000000    -4.681000000
C     0.763000000     1.411000000    -4.299000000
C     1.359000000     2.325000000    -3.485000000
H     0.867000000     3.269000000    -3.264000000
C     2.638000000     2.100000000    -2.986000000
O     3.254000000     3.103000000    -2.177000000
C     3.334000000     0.965000000    -3.347000000
C     4.684000000     0.645000000    -2.675000000
H     5.275000000    -0.054000000    -3.270000000
C     4.655000000     0.144000000    -1.253000000
C     4.805000000    -1.282000000    -1.127000000
H     4.710000000    -1.927000000    -1.996000000
H     5.284000000     1.557000000    -2.679000000
C     2.770000000     0.123000000    -4.329000000
H     3.263000000    -0.796000000    -4.635000000
C     1.453000000     0.307000000    -4.766000000
C     0.732000000    -0.755000000    -5.571000000
H     1.481000000    -1.306000000    -6.142000000
H     0.084000000    -0.204000000    -6.257000000
C    -0.006000000    -1.735000000    -4.714000000
C     0.679000000    -2.792000000    -4.058000000
H     1.722000000    -3.003000000    -4.278000000
C    -1.274000000    -1.402000000    -4.293000000
C    -1.962000000    -2.162000000    -3.363000000
H    -2.963000000    -1.806000000    -3.132000000
C    -1.333000000    -3.287000000    -2.870000000
O    -1.996000000    -3.950000000    -1.930000000
C    -1.586000000    -3.826000000    -0.528000000
C    -2.815000000    -3.844000000     0.378000000
C    -2.897000000    -4.590000000     1.571000000
H    -2.121000000    -5.236000000     1.973000000
C    -3.841000000    -3.001000000     0.101000000
H    -3.740000000    -2.287000000    -0.713000000
O    -0.729000000    -4.888000000    -0.175000000
H    -0.967000000    -2.935000000    -0.345000000
C    -0.012000000    -3.631000000    -3.180000000
C     0.735000000    -4.848000000    -2.621000000
H     1.486000000    -5.157000000    -3.351000000
H    -0.079000000    -5.572000000    -2.552000000
C     1.414000000    -4.594000000    -1.294000000
C     2.773000000    -4.160000000    -1.211000000
H     3.433000000    -4.092000000    -2.071000000
C     0.669000000    -4.587000000    -0.091000000
C     1.086000000    -4.222000000     1.205000000
H     0.464000000    -4.220000000     2.096000000
C     2.484000000    -3.875000000     1.308000000
O     2.869000000    -3.396000000     2.518000000
C     2.954000000    -1.945000000     2.677000000
C     2.299000000    -1.348000000     3.975000000
C     1.106000000    -1.925000000     4.355000000
H     0.687000000    -2.800000000     3.865000000
C     2.711000000    -0.153000000     4.605000000
H     3.554000000     0.430000000     4.245000000
O     4.288000000    -1.458000000     2.506000000
H     2.278000000    -1.535000000     1.912000000
C     3.281000000    -3.813000000     0.113000000
C     4.763000000    -3.388000000     0.224000000
H     5.408000000    -3.844000000    -0.530000000
H     5.043000000    -3.825000000     1.185000000
C     4.794000000    -1.876000000     0.180000000
C     4.618000000    -1.005000000     1.286000000
C     4.563000000     0.400000000     1.119000000
H     4.392000000     0.995000000     2.012000000
C     4.457000000     0.980000000    -0.168000000
O     4.407000000     2.321000000    -0.210000000
C     3.116000000     2.766000000    -0.797000000
H     2.293000000     2.039000000    -0.729000000
C     2.582000000     3.987000000    -0.055000000
C     1.813000000     5.018000000    -0.709000000
H     1.963000000     5.228000000    -1.765000000
C     2.611000000     4.050000000     1.336000000
H     3.251000000     3.368000000     1.891000000
C     1.877000000     5.013000000     2.018000000
O     1.744000000     5.029000000     3.412000000
C     1.042000000     5.908000000     1.395000000
H     0.423000000     6.604000000     1.954000000
C     1.087000000     5.952000000     0.038000000
O     0.433000000     6.992000000    -0.563000000
C    -0.400000000     6.846000000    -1.592000000
C    -1.480000000     5.946000000    -1.499000000
H    -1.688000000     5.412000000    -0.575000000
C    -0.163000000     7.694000000    -2.675000000
H     0.652000000     8.412000000    -2.694000000
C    -1.077000000     7.691000000    -3.714000000
H    -0.920000000     8.364000000    -4.552000000
C    -2.142000000     6.800000000    -3.745000000
H    -2.798000000     6.642000000    -4.597000000
C    -2.354000000     5.932000000    -2.621000000
O    -3.554000000     5.233000000    -2.505000000
C    -3.667000000     3.912000000    -2.960000000
C    -4.886000000     3.189000000    -2.771000000
H    -5.748000000     3.628000000    -2.276000000
C    -5.036000000     1.881000000    -3.148000000
O    -6.235000000     1.214000000    -2.936000000
C    -6.297000000    -0.050000000    -2.332000000
C    -6.084000000    -0.233000000    -0.947000000
H    -5.668000000     0.551000000    -0.320000000
C    -6.783000000    -1.106000000    -3.067000000
H    -7.039000000    -0.964000000    -4.114000000
C    -7.054000000    -2.380000000    -2.539000000
H    -7.374000000    -3.142000000    -3.245000000
C    -6.710000000    -2.587000000    -1.192000000
H    -6.971000000    -3.515000000    -0.691000000
C    -6.224000000    -1.521000000    -0.484000000
O    -5.866000000    -1.825000000     0.796000000
C    -4.876000000    -2.773000000     1.000000000
C    -4.939000000    -3.475000000     2.221000000
H    -5.687000000    -3.205000000     2.963000000
C    -3.917000000    -4.340000000     2.533000000
O    -3.936000000    -4.872000000     3.818000000
C    -2.901000000    -4.688000000     4.672000000
C    -2.419000000    -3.390000000     4.892000000
H    -2.813000000    -2.485000000     4.437000000
C    -2.305000000    -5.800000000     5.282000000
H    -2.579000000    -6.849000000     5.199000000
C    -1.271000000    -5.489000000     6.224000000
H    -0.775000000    -6.265000000     6.802000000
C    -0.780000000    -4.188000000     6.408000000
H     0.007000000    -4.012000000     7.137000000
C    -1.359000000    -3.133000000     5.681000000
O    -0.905000000    -1.861000000     5.801000000
C     0.339000000    -1.375000000     5.434000000
C     0.809000000    -0.279000000     6.081000000
H     0.266000000     0.213000000     6.884000000
C     1.924000000     0.397000000     5.618000000
O     2.448000000     1.425000000     6.455000000
C     2.933000000     2.616000000     5.870000000
C     4.230000000     2.977000000     5.985000000
H     4.919000000     2.381000000     6.578000000
C     4.813000000     3.955000000     5.228000000
H     5.877000000     4.177000000     5.243000000
C     3.976000000     4.611000000     4.284000000
H     4.479000000     5.337000000     3.651000000
C     2.565000000     4.305000000     4.263000000
C     2.062000000     3.374000000     5.062000000
H     1.007000000     3.113000000     5.045000000
C    -2.462000000     1.627000000     0.805000000
H    -2.999000000     2.546000000     0.584000000
C    -1.698000000     1.028000000    -0.194000000
H    -1.721000000     1.559000000    -1.142000000
C    -1.003000000    -0.173000000     0.089000000
H    -0.531000000    -0.631000000    -0.741000000
C    -1.014000000    -0.703000000     1.376000000
H    -0.459000000    -1.604000000     1.628000000
C    -1.713000000    -0.084000000     2.390000000
H    -1.730000000    -0.544000000     3.374000000
C    -2.505000000     1.041000000     2.102000000
C    -3.540000000     1.575000000     3.052000000
O    -3.615000000     1.186000000     4.188000000
O    -4.478000000     2.282000000     2.672000000
O    -8.122000000     3.744000000    -1.018000000
H    -9.078000000     3.710000000    -0.982000000
H    -7.843000000     3.599000000    -0.114000000
O    -4.482000000     5.388000000     6.612000000
H    -4.333000000     6.332000000     6.658000000
H    -4.059000000     5.118000000     5.797000000
O    -8.341000000    -2.577000000     3.290000000
H    -7.649000000    -2.298000000     3.888000000
H    -8.143000000    -3.495000000     3.105000000
O    -6.961000000     0.280000000     3.866000000
H    -6.802000000    -0.442000000     4.475000000
H    -6.088000000     0.605000000     3.646000000
O    -2.684000000     5.795000000     2.218000000
H    -2.795000000     6.737000000     2.085000000
H    -3.286000000     5.393000000     1.592000000
O    -3.871000000     4.418000000     4.169000000
H    -4.108000000     3.741000000     3.535000000
H    -3.408000000     5.078000000     3.652000000
O    -8.753000000     1.786000000     2.475000000
H    -8.126000000     1.461000000     3.121000000
H    -9.594000000     1.777000000     2.931000000
O    -1.075000000     4.763000000     4.690000000
H    -1.240000000     4.704000000     3.749000000
H    -1.838000000     4.349000000     5.093000000
O    -2.764000000     1.407000000     6.875000000
H    -1.996000000     1.978000000     6.897000000
H    -2.956000000     1.300000000     5.943000000
O    -4.025000000     3.151000000     8.314000000
H    -3.658000000     2.681000000     7.565000000
H    -4.455000000     3.915000000     7.930000000
O    -4.340000000    -0.956000000     5.821000000
H    -3.501000000    -1.188000000     6.220000000
H    -4.132000000    -0.234000000     5.229000000
O    -7.321000000     6.116000000     1.626000000
H    -7.065000000     6.139000000     0.703000000
H    -6.929000000     5.311000000     1.963000000
O    -5.506000000     2.302000000     5.542000000
H    -5.464000000     3.258000000     5.555000000
H    -4.837000000     2.042000000     4.909000000
O    -0.616000000     2.887000000     7.574000000
H    -0.137000000     2.836000000     8.401000000
H    -0.781000000     3.821000000     7.449000000
O    -6.582000000     2.958000000     1.287000000
H    -7.289000000     2.574000000     1.805000000
H    -5.786000000     2.548000000     1.627000000
O    -2.321000000    -0.022000000     8.992000000
H    -2.188000000     0.490000000     8.194000000
H    -3.184000000     0.246000000     9.307000000
O    -6.576000000    -2.486000000     5.075000000
H    -6.575000000    -3.425000000     5.261000000
H    -5.757000000    -2.165000000     5.452000000
O    -4.461000000     4.994000000     0.542000000
H    -4.982000000     4.296000000     0.939000000
H    -4.938000000     5.224000000    -0.255000000
O    -6.432000000     0.183000000     7.163000000
H    -6.324000000     0.876000000     6.512000000
H    -5.829000000    -0.506000000     6.882000000
