215
-1450.32577
C    -3.852000000     1.664000000    -3.377000000
H    -4.130000000     0.636000000    -3.593000000
C    -2.520000000     2.089000000    -3.430000000
C    -2.152000000     3.383000000    -3.102000000
H    -1.125000000     3.739000000    -3.120000000
C    -1.513000000     1.043000000    -3.769000000
O    -2.042000000    -0.054000000    -4.596000000
H    -1.060000000     0.625000000    -2.858000000
O    -0.421000000     1.657000000    -4.664000000
C     0.868000000     1.355000000    -4.370000000
C     1.468000000     2.183000000    -3.503000000
H     0.977000000     3.059000000    -3.087000000
C     2.791000000     1.882000000    -3.081000000
O     3.354000000     2.743000000    -2.187000000
C     3.362000000     0.681000000    -3.437000000
C     4.738000000     0.379000000    -2.820000000
H     5.336000000    -0.287000000    -3.446000000
C     4.591000000    -0.275000000    -1.452000000
C     4.718000000    -1.669000000    -1.351000000
H     4.670000000    -2.292000000    -2.240000000
H     5.387000000     1.257000000    -2.825000000
C     2.744000000    -0.207000000    -4.244000000
H     3.204000000    -1.160000000    -4.491000000
C     1.411000000     0.112000000    -4.648000000
C     0.587000000    -0.879000000    -5.403000000
H     1.339000000    -1.480000000    -5.917000000
H     0.010000000    -0.357000000    -6.169000000
C    -0.341000000    -1.669000000    -4.478000000
C     0.238000000    -2.846000000    -3.905000000
H     1.244000000    -3.178000000    -4.146000000
C    -1.644000000    -1.334000000    -4.192000000
C    -2.339000000    -2.057000000    -3.257000000
H    -3.308000000    -1.752000000    -2.870000000
C    -1.791000000    -3.292000000    -2.785000000
O    -2.585000000    -3.890000000    -1.833000000
C    -2.214000000    -3.790000000    -0.403000000
C    -3.251000000    -3.515000000     0.567000000
C    -3.360000000    -4.157000000     1.788000000
H    -2.688000000    -4.985000000     2.002000000
C    -4.206000000    -2.534000000     0.254000000
H    -4.109000000    -2.019000000    -0.698000000
O    -1.348000000    -4.852000000     0.014000000
H    -1.627000000    -2.860000000    -0.389000000
C    -0.521000000    -3.719000000    -3.091000000
C     0.131000000    -4.966000000    -2.559000000
H     0.807000000    -5.294000000    -3.352000000
H    -0.591000000    -5.782000000    -2.482000000
C     0.758000000    -4.616000000    -1.221000000
C     2.131000000    -4.353000000    -1.174000000
H     2.638000000    -4.393000000    -2.135000000
C     0.018000000    -4.648000000     0.002000000
C     0.609000000    -4.268000000     1.232000000
H     0.104000000    -4.427000000     2.182000000
C     1.992000000    -4.072000000     1.270000000
O     2.579000000    -3.645000000     2.427000000
C     2.752000000    -2.268000000     2.580000000
C     2.269000000    -1.795000000     3.983000000
C     1.237000000    -2.482000000     4.631000000
H     0.873000000    -3.368000000     4.117000000
C     2.721000000    -0.553000000     4.544000000
H     3.609000000    -0.031000000     4.197000000
O     4.114000000    -1.926000000     2.284000000
H     2.145000000    -1.752000000     1.822000000
C     2.781000000    -4.026000000     0.042000000
C     4.319000000    -3.710000000    -0.039000000
H     4.621000000    -4.111000000    -1.008000000
H     4.817000000    -4.221000000     0.788000000
C     4.645000000    -2.282000000    -0.042000000
C     4.575000000    -1.462000000     1.062000000
C     4.590000000    -0.103000000     0.896000000
H     4.495000000     0.562000000     1.750000000
C     4.456000000     0.507000000    -0.330000000
O     4.276000000     1.901000000    -0.265000000
C     3.055000000     2.495000000    -0.847000000
H     2.233000000     1.771000000    -0.741000000
C     2.678000000     3.740000000    -0.069000000
C     2.139000000     4.923000000    -0.718000000
H     1.987000000     4.884000000    -1.793000000
C     2.947000000     3.854000000     1.295000000
H     3.411000000     3.010000000     1.799000000
C     2.721000000     5.051000000     1.979000000
O     3.009000000     5.123000000     3.318000000
C     2.172000000     6.217000000     1.307000000
H     2.025000000     7.090000000     1.938000000
C     1.794000000     6.116000000    -0.011000000
O     1.280000000     7.153000000    -0.743000000
C     0.248000000     7.101000000    -1.732000000
C    -0.852000000     6.289000000    -1.606000000
H    -0.973000000     5.682000000    -0.713000000
C     0.352000000     7.998000000    -2.807000000
H     1.194000000     8.686000000    -2.806000000
C    -0.714000000     8.080000000    -3.700000000
H    -0.709000000     8.677000000    -4.608000000
C    -1.829000000     7.302000000    -3.525000000
H    -2.673000000     7.408000000    -4.202000000
C    -1.897000000     6.350000000    -2.534000000
O    -3.001000000     5.651000000    -2.360000000
C    -3.176000000     4.282000000    -2.718000000
C    -4.525000000     3.818000000    -2.729000000
H    -5.332000000     4.503000000    -2.482000000
C    -4.841000000     2.523000000    -3.051000000
O    -6.136000000     2.068000000    -2.933000000
C    -6.500000000     0.855000000    -2.379000000
C    -6.161000000     0.496000000    -1.098000000
H    -5.666000000     1.200000000    -0.434000000
C    -7.165000000    -0.020000000    -3.186000000
H    -7.331000000     0.353000000    -4.194000000
C    -7.376000000    -1.296000000    -2.718000000
H    -7.714000000    -2.026000000    -3.448000000
C    -7.149000000    -1.656000000    -1.364000000
H    -7.347000000    -2.692000000    -1.099000000
C    -6.467000000    -0.799000000    -0.572000000
O    -6.184000000    -1.214000000     0.713000000
C    -5.248000000    -2.212000000     1.062000000
C    -5.241000000    -2.789000000     2.317000000
H    -6.081000000    -2.537000000     2.960000000
C    -4.323000000    -3.736000000     2.728000000
O    -4.352000000    -4.288000000     4.045000000
C    -3.108000000    -4.365000000     4.763000000
C    -2.193000000    -3.285000000     5.034000000
H    -2.403000000    -2.264000000     4.728000000
C    -2.797000000    -5.683000000     5.245000000
H    -3.420000000    -6.555000000     5.064000000
C    -1.618000000    -5.868000000     5.998000000
H    -1.474000000    -6.863000000     6.412000000
C    -0.826000000    -4.879000000     6.370000000
H    -0.040000000    -5.027000000     7.107000000
C    -1.099000000    -3.578000000     5.882000000
O    -0.423000000    -2.517000000     6.389000000
C     0.674000000    -1.926000000     5.787000000
C     1.058000000    -0.689000000     6.303000000
H     0.492000000    -0.284000000     7.138000000
C     2.129000000    -0.028000000     5.687000000
O     2.377000000     1.277000000     6.087000000
C     3.237000000     2.175000000     5.507000000
C     4.653000000     2.084000000     5.681000000
H     5.024000000     1.255000000     6.278000000
C     5.482000000     3.055000000     5.145000000
H     6.549000000     3.001000000     5.342000000
C     4.848000000     4.088000000     4.426000000
H     5.465000000     4.856000000     3.966000000
C     3.493000000     4.171000000     4.215000000
C     2.644000000     3.253000000     4.800000000
H     1.583000000     3.315000000     4.568000000
C    -2.018000000     1.779000000     0.430000000
H    -2.459000000     2.754000000     0.242000000
C    -0.764000000     1.436000000    -0.176000000
H    -0.351000000     2.149000000    -0.885000000
C    -0.088000000     0.224000000     0.064000000
H     0.860000000     0.006000000    -0.434000000
C    -0.685000000    -0.636000000     0.998000000
H    -0.300000000    -1.631000000     1.205000000
C    -1.818000000    -0.207000000     1.643000000
H    -2.286000000    -0.908000000     2.331000000
C    -2.531000000     0.948000000     1.353000000
C    -3.773000000     1.325000000     2.156000000
O    -4.014000000     0.658000000     3.199000000
O    -4.560000000     2.167000000     1.763000000
O    -6.836000000     2.775000000     4.668000000
H    -6.703000000     1.939000000     4.221000000
H    -6.277000000     3.391000000     4.194000000
O    -8.511000000     0.719000000     5.116000000
H    -8.382000000     0.276000000     5.955000000
H    -7.796000000     0.400000000     4.565000000
O    -9.655000000     2.098000000     2.902000000
H    -8.789000000     2.060000000     2.497000000
H    -9.517000000     1.777000000     3.793000000
O    -4.391000000     4.419000000     8.133000000
H    -3.781000000     4.269000000     7.411000000
H    -5.105000000     3.801000000     7.974000000
O    -1.133000000     6.293000000     2.751000000
H    -1.963000000     6.589000000     2.376000000
H    -0.889000000     6.983000000     3.368000000
O    -7.803000000     3.544000000    -0.382000000
H    -7.885000000     2.837000000     0.259000000
H    -8.382000000     3.285000000    -1.099000000
O    -1.061000000     3.534000000     2.920000000
H    -0.992000000     4.484000000     2.828000000
H    -0.879000000     3.195000000     2.044000000
O    -3.592000000     0.721000000     5.888000000
H    -2.936000000     1.385000000     5.679000000
H    -3.871000000     0.384000000     5.037000000
O    -2.673000000     4.632000000     5.962000000
H    -2.086000000     3.891000000     6.110000000
H    -2.219000000     5.379000000     6.353000000
O    -6.352000000    -0.081000000     3.898000000
H    -5.486000000     0.162000000     3.570000000
H    -6.176000000    -0.708000000     4.599000000
O    -4.653000000     4.096000000     3.679000000
H    -3.849000000     4.355000000     4.129000000
H    -4.366000000     3.462000000     3.022000000
O    -1.255000000     2.098000000     5.173000000
H    -1.362000000     2.407000000     4.274000000
H    -0.312000000     1.961000000     5.269000000
O    -5.081000000     4.763000000     0.644000000
H    -5.892000000     4.420000000     0.271000000
H    -5.012000000     4.338000000     1.499000000
O    -5.796000000     6.770000000     4.123000000
H    -6.134000000     6.647000000     5.010000000
H    -5.352000000     5.947000000     3.920000000
O    -3.970000000    -1.445000000     7.566000000
H    -3.544000000    -0.742000000     7.076000000
H    -4.420000000    -1.963000000     6.899000000
O    -6.341000000     2.304000000     7.285000000
H    -6.253000000     1.351000000     7.275000000
H    -6.391000000     2.549000000     6.361000000
O    -8.622000000    -1.297000000     2.710000000
H    -8.588000000    -2.245000000     2.833000000
H    -7.810000000    -0.975000000     3.103000000
O    -3.694000000     6.993000000     1.603000000
H    -4.297000000     6.250000000     1.571000000
H    -4.010000000     7.526000000     2.333000000
O    -7.223000000     1.716000000     1.682000000
H    -6.339000000     2.081000000     1.635000000
H    -7.089000000     0.791000000     1.889000000
