215
-1443.62143
C    -3.062000000    -0.392000000    -4.317000000
H    -3.626000000    -1.256000000    -3.977000000
C    -1.690000000    -0.219000000    -4.307000000
C    -1.103000000     1.010000000    -4.625000000
H    -0.029000000     1.113000000    -4.754000000
C    -0.784000000    -1.357000000    -3.750000000
O    -1.446000000    -2.641000000    -3.936000000
H    -0.644000000    -1.202000000    -2.670000000
O     0.438000000    -1.400000000    -4.559000000
C     1.599000000    -1.586000000    -3.864000000
C     2.355000000    -0.493000000    -3.536000000
H     2.024000000     0.471000000    -3.914000000
C     3.468000000    -0.607000000    -2.740000000
O     4.154000000     0.562000000    -2.420000000
C     3.775000000    -1.845000000    -2.161000000
C     4.957000000    -1.968000000    -1.215000000
H     5.379000000    -2.974000000    -1.161000000
C     4.591000000    -1.617000000     0.242000000
C     4.286000000    -2.628000000     1.092000000
H     4.304000000    -3.667000000     0.770000000
H     5.759000000    -1.318000000    -1.572000000
C     3.071000000    -3.031000000    -2.514000000
H     3.367000000    -3.968000000    -2.049000000
C     1.972000000    -2.882000000    -3.420000000
C     1.124000000    -4.066000000    -3.694000000
H     1.673000000    -4.995000000    -3.863000000
H     0.650000000    -3.984000000    -4.674000000
C    -0.026000000    -4.161000000    -2.625000000
C     0.006000000    -4.917000000    -1.469000000
H     0.972000000    -5.328000000    -1.186000000
C    -1.240000000    -3.548000000    -2.938000000
C    -2.249000000    -3.544000000    -2.014000000
H    -3.140000000    -2.953000000    -2.208000000
C    -2.141000000    -4.235000000    -0.812000000
O    -3.101000000    -3.949000000     0.127000000
C    -2.735000000    -2.881000000     1.061000000
C    -3.752000000    -1.824000000     1.092000000
C    -3.826000000    -0.948000000     2.151000000
H    -3.058000000    -0.973000000     2.920000000
C    -4.772000000    -1.806000000     0.129000000
H    -4.801000000    -2.561000000    -0.653000000
O    -2.483000000    -3.392000000     2.393000000
H    -1.868000000    -2.313000000     0.691000000
C    -0.952000000    -4.816000000    -0.476000000
C    -0.767000000    -5.369000000     0.901000000
H    -0.079000000    -6.208000000     0.779000000
H    -1.677000000    -5.806000000     1.320000000
C    -0.281000000    -4.404000000     1.940000000
C     1.102000000    -4.348000000     2.136000000
H     1.727000000    -5.037000000     1.574000000
C    -1.155000000    -3.615000000     2.705000000
C    -0.659000000    -2.778000000     3.708000000
H    -1.286000000    -2.156000000     4.342000000
C     0.719000000    -2.657000000     3.812000000
O     1.182000000    -1.663000000     4.607000000
C     1.779000000    -0.483000000     3.969000000
C     1.180000000     0.824000000     4.533000000
C     0.028000000     0.781000000     5.360000000
H    -0.397000000    -0.151000000     5.724000000
C     1.653000000     2.029000000     4.066000000
H     2.601000000     2.035000000     3.533000000
O     3.272000000    -0.568000000     3.929000000
H     1.499000000    -0.554000000     2.908000000
C     1.582000000    -3.434000000     3.038000000
C     3.135000000    -3.302000000     3.197000000
H     3.515000000    -4.297000000     2.960000000
H     3.364000000    -3.273000000     4.265000000
C     3.844000000    -2.271000000     2.371000000
C     3.864000000    -0.930000000     2.748000000
C     4.270000000     0.073000000     1.904000000
H     4.352000000     1.084000000     2.294000000
C     4.567000000    -0.292000000     0.603000000
O     4.851000000     0.747000000    -0.175000000
C     3.894000000     1.157000000    -1.119000000
H     2.916000000     0.871000000    -0.704000000
C     3.920000000     2.640000000    -1.187000000
C     3.269000000     3.347000000    -2.276000000
H     2.847000000     2.714000000    -3.053000000
C     4.498000000     3.467000000    -0.212000000
H     4.853000000     3.028000000     0.717000000
C     4.418000000     4.842000000    -0.289000000
O     4.783000000     5.687000000     0.799000000
C     3.901000000     5.441000000    -1.402000000
H     3.958000000     6.524000000    -1.473000000
C     3.222000000     4.706000000    -2.326000000
O     2.544000000     5.320000000    -3.399000000
C     1.957000000     4.575000000    -4.360000000
C     0.592000000     4.338000000    -4.273000000
H     0.002000000     4.793000000    -3.481000000
C     2.749000000     4.108000000    -5.376000000
H     3.805000000     4.359000000    -5.438000000
C     2.186000000     3.224000000    -6.297000000
H     2.674000000     2.786000000    -7.163000000
C     0.824000000     3.017000000    -6.220000000
H     0.359000000     2.407000000    -6.991000000
C     0.035000000     3.564000000    -5.220000000
O    -1.297000000     3.336000000    -5.291000000
C    -1.919000000     2.119000000    -4.930000000
C    -3.267000000     1.964000000    -5.012000000
H    -3.930000000     2.754000000    -5.355000000
C    -3.854000000     0.691000000    -4.838000000
O    -5.276000000     0.628000000    -4.820000000
C    -6.009000000    -0.303000000    -4.050000000
C    -5.924000000    -0.385000000    -2.699000000
H    -5.406000000     0.394000000    -2.144000000
C    -6.699000000    -1.225000000    -4.710000000
H    -6.596000000    -1.267000000    -5.791000000
C    -7.556000000    -2.143000000    -4.072000000
H    -8.132000000    -2.873000000    -4.636000000
C    -7.584000000    -2.066000000    -2.670000000
H    -8.282000000    -2.675000000    -2.101000000
C    -6.772000000    -1.223000000    -1.998000000
O    -6.880000000    -1.162000000    -0.598000000
C    -5.813000000    -0.972000000     0.282000000
C    -5.809000000     0.083000000     1.267000000
H    -6.660000000     0.753000000     1.364000000
C    -4.714000000     0.091000000     2.163000000
O    -4.786000000     1.029000000     3.103000000
C    -4.398000000     0.924000000     4.365000000
C    -3.294000000     1.628000000     4.874000000
H    -2.815000000     2.447000000     4.343000000
C    -5.025000000    -0.021000000     5.179000000
H    -5.911000000    -0.490000000     4.758000000
C    -4.491000000    -0.406000000     6.427000000
H    -4.743000000    -1.331000000     6.939000000
C    -3.381000000     0.310000000     6.906000000
H    -2.959000000     0.144000000     7.894000000
C    -2.786000000     1.302000000     6.106000000
O    -1.649000000     1.965000000     6.506000000
C    -0.526000000     1.957000000     5.725000000
C    -0.066000000     3.192000000     5.293000000
H    -0.528000000     4.141000000     5.553000000
C     1.082000000     3.220000000     4.534000000
O     1.554000000     4.405000000     4.069000000
C     2.885000000     4.673000000     3.689000000
C     3.905000000     4.538000000     4.612000000
H     3.620000000     4.308000000     5.636000000
C     5.194000000     4.749000000     4.293000000
H     5.977000000     4.734000000     5.047000000
C     5.518000000     5.034000000     2.999000000
H     6.530000000     5.346000000     2.752000000
C     4.502000000     5.324000000     2.072000000
C     3.168000000     5.161000000     2.438000000
H     2.406000000     5.368000000     1.692000000
C    -1.187000000     1.663000000     1.647000000
H    -1.784000000     1.670000000     2.556000000
C    -0.585000000     0.493000000     1.212000000
H    -0.807000000    -0.437000000     1.730000000
C     0.060000000     0.471000000    -0.043000000
H     0.410000000    -0.415000000    -0.422000000
C     0.203000000     1.600000000    -0.836000000
H     0.809000000     1.565000000    -1.738000000
C    -0.255000000     2.803000000    -0.331000000
H    -0.066000000     3.751000000    -0.828000000
C    -1.063000000     2.807000000     0.896000000
C    -1.798000000     4.077000000     1.262000000
O    -1.625000000     5.152000000     0.722000000
O    -2.497000000     4.126000000     2.309000000
O    -2.275000000     9.903000000     3.562000000
H    -2.195000000     9.130000000     3.002000000
H    -1.392000000    10.272000000     3.589000000
O     1.452000000     8.819000000     4.146000000
H     2.054000000     8.959000000     4.878000000
H     0.704000000     8.365000000     4.535000000
O    -5.567000000     4.243000000     6.309000000
H    -5.033000000     4.500000000     5.558000000
H    -5.597000000     5.024000000     6.861000000
O    -5.654000000     5.835000000     0.184000000
H    -5.389000000     5.206000000     0.856000000
H    -6.171000000     6.487000000     0.656000000
O    -4.714000000     7.634000000     2.861000000
H    -3.853000000     7.599000000     2.446000000
H    -5.319000000     7.820000000     2.143000000
O    -0.866000000     7.472000000     5.753000000
H    -1.793000000     7.415000000     5.988000000
H    -0.797000000     6.983000000     4.933000000
O    -3.778000000     9.753000000    -0.209000000
H    -3.494000000     8.971000000    -0.682000000
H    -3.307000000     9.714000000     0.624000000
O     2.328000000     8.431000000     1.368000000
H     1.704000000     7.863000000     0.916000000
H     2.168000000     8.271000000     2.298000000
O    -4.413000000     7.111000000    -3.519000000
H    -3.907000000     6.992000000    -2.714000000
H    -4.896000000     7.925000000    -3.380000000
O    -0.762000000     5.743000000     3.738000000
H     0.067000000     5.266000000     3.715000000
H    -1.411000000     5.110000000     3.432000000
O     0.927000000     6.594000000    -0.083000000
H     0.250000000     6.121000000     0.401000000
H     0.616000000     6.600000000    -0.988000000
O    -7.177000000     4.292000000    -1.574000000
H    -6.502000000     4.273000000    -2.252000000
H    -6.756000000     4.720000000    -0.829000000
O    -3.171000000     6.483000000    -1.112000000
H    -2.572000000     5.889000000    -0.661000000
H    -4.040000000     6.227000000    -0.805000000
O    -4.998000000     3.376000000     1.164000000
H    -5.232000000     2.652000000     1.745000000
H    -4.044000000     3.431000000     1.221000000
O    -5.397000000     4.451000000    -3.752000000
H    -4.825000000     5.208000000    -3.882000000
H    -5.638000000     4.179000000    -4.638000000
O    -4.680000000     8.600000000     5.366000000
H    -5.154000000     9.423000000     5.244000000
H    -4.480000000     8.304000000     4.478000000
O    -1.888000000     7.940000000     1.730000000
H    -1.162000000     8.417000000     1.328000000
H    -1.744000000     7.028000000     1.480000000
O    -1.102000000     8.309000000    -1.858000000
H    -1.651000000     7.645000000    -1.440000000
H    -1.031000000     9.006000000    -1.205000000
O    -4.140000000     5.011000000     4.140000000
H    -3.561000000     4.627000000     3.482000000
H    -4.236000000     5.925000000     3.871000000
