215
-1474.14780
C    -4.131000000     1.981000000    -3.043000000
H    -4.501000000     0.968000000    -2.903000000
C    -2.836000000     2.216000000    -3.604000000
C    -2.385000000     3.550000000    -3.660000000
H    -1.365000000     3.801000000    -3.942000000
C    -1.870000000     1.098000000    -4.049000000
O    -2.571000000    -0.096000000    -4.434000000
H    -1.243000000     0.950000000    -3.158000000
O    -0.930000000     1.480000000    -5.067000000
C     0.353000000     1.065000000    -4.705000000
C     1.204000000     1.944000000    -4.075000000
H     0.828000000     2.919000000    -3.776000000
C     2.470000000     1.540000000    -3.709000000
O     3.175000000     2.341000000    -2.889000000
C     2.905000000     0.213000000    -3.999000000
C     4.308000000    -0.270000000    -3.527000000
H     4.617000000    -1.039000000    -4.239000000
C     4.226000000    -0.775000000    -2.104000000
C     3.885000000    -2.117000000    -1.883000000
H     3.649000000    -2.727000000    -2.751000000
H     4.996000000     0.577000000    -3.571000000
C     2.026000000    -0.641000000    -4.676000000
H     2.296000000    -1.683000000    -4.829000000
C     0.796000000    -0.249000000    -5.077000000
C    -0.152000000    -1.246000000    -5.706000000
H     0.507000000    -1.969000000    -6.192000000
H    -0.719000000    -0.869000000    -6.560000000
C    -0.954000000    -1.887000000    -4.552000000
C    -0.389000000    -3.035000000    -3.931000000
H     0.517000000    -3.495000000    -4.317000000
C    -2.072000000    -1.306000000    -3.980000000
C    -2.762000000    -1.908000000    -2.993000000
H    -3.704000000    -1.521000000    -2.614000000
C    -2.283000000    -3.059000000    -2.435000000
O    -2.943000000    -3.582000000    -1.380000000
C    -2.442000000    -3.437000000    -0.047000000
C    -3.338000000    -2.758000000     1.026000000
C    -3.424000000    -3.203000000     2.334000000
H    -2.801000000    -4.039000000     2.642000000
C    -4.143000000    -1.690000000     0.680000000
H    -4.276000000    -1.395000000    -0.358000000
O    -1.835000000    -4.632000000     0.523000000
H    -1.594000000    -2.737000000    -0.050000000
C    -1.147000000    -3.660000000    -2.924000000
C    -0.733000000    -4.978000000    -2.218000000
H    -0.159000000    -5.608000000    -2.901000000
H    -1.527000000    -5.705000000    -2.039000000
C     0.090000000    -4.809000000    -1.028000000
C     1.416000000    -4.532000000    -1.222000000
H     1.767000000    -4.428000000    -2.246000000
C    -0.499000000    -4.731000000     0.249000000
C     0.364000000    -4.419000000     1.298000000
H    -0.075000000    -4.283000000     2.283000000
C     1.703000000    -4.202000000     1.091000000
O     2.499000000    -3.802000000     2.167000000
C     2.839000000    -2.414000000     2.242000000
C     2.632000000    -1.872000000     3.659000000
C     1.611000000    -2.410000000     4.429000000
H     1.038000000    -3.284000000     4.129000000
C     3.433000000    -0.893000000     4.248000000
H     4.319000000    -0.488000000     3.765000000
O     4.166000000    -2.256000000     1.729000000
H     2.159000000    -1.801000000     1.632000000
C     2.267000000    -4.310000000    -0.201000000
C     3.737000000    -4.131000000    -0.398000000
H     4.085000000    -4.767000000    -1.214000000
H     4.187000000    -4.523000000     0.517000000
C     4.041000000    -2.657000000    -0.641000000
C     4.231000000    -1.812000000     0.473000000
C     4.556000000    -0.476000000     0.262000000
H     4.719000000     0.158000000     1.130000000
C     4.601000000     0.012000000    -1.063000000
O     4.573000000     1.363000000    -1.246000000
C     3.250000000     1.899000000    -1.501000000
H     2.396000000     1.214000000    -1.395000000
C     2.978000000     3.123000000    -0.644000000
C     1.842000000     3.931000000    -0.915000000
H     1.204000000     3.715000000    -1.768000000
C     3.609000000     3.212000000     0.641000000
H     4.476000000     2.615000000     0.915000000
C     3.197000000     4.168000000     1.555000000
O     3.863000000     4.439000000     2.719000000
C     2.187000000     5.051000000     1.261000000
H     1.880000000     5.823000000     1.961000000
C     1.482000000     4.918000000     0.053000000
O     0.333000000     5.609000000    -0.002000000
C    -0.060000000     6.248000000    -1.168000000
C    -1.163000000     5.762000000    -1.832000000
H    -1.707000000     4.937000000    -1.379000000
C     0.693000000     7.354000000    -1.665000000
H     1.600000000     7.656000000    -1.147000000
C     0.213000000     7.978000000    -2.814000000
H     0.700000000     8.882000000    -3.170000000
C    -0.893000000     7.403000000    -3.533000000
H    -1.369000000     7.868000000    -4.393000000
C    -1.522000000     6.269000000    -3.034000000
O    -2.759000000     5.920000000    -3.617000000
C    -3.224000000     4.626000000    -3.373000000
C    -4.575000000     4.398000000    -2.937000000
H    -5.255000000     5.245000000    -2.894000000
C    -5.021000000     3.069000000    -2.754000000
O    -6.284000000     2.942000000    -2.303000000
C    -6.593000000     1.835000000    -1.505000000
C    -5.798000000     1.581000000    -0.432000000
H    -4.970000000     2.241000000    -0.186000000
C    -7.597000000     0.861000000    -1.856000000
H    -8.230000000     1.094000000    -2.709000000
C    -7.767000000    -0.331000000    -1.119000000
H    -8.453000000    -1.112000000    -1.438000000
C    -7.003000000    -0.533000000    -0.028000000
H    -7.005000000    -1.481000000     0.503000000
C    -6.033000000     0.457000000     0.313000000
O    -5.189000000     0.241000000     1.280000000
C    -4.631000000    -0.897000000     1.620000000
C    -4.680000000    -1.227000000     2.953000000
H    -5.149000000    -0.592000000     3.700000000
C    -4.122000000    -2.429000000     3.287000000
O    -4.059000000    -2.766000000     4.677000000
C    -2.992000000    -3.388000000     5.293000000
C    -1.759000000    -2.758000000     5.406000000
H    -1.709000000    -1.783000000     4.929000000
C    -3.178000000    -4.601000000     5.931000000
H    -4.166000000    -5.050000000     5.860000000
C    -2.091000000    -5.177000000     6.659000000
H    -2.307000000    -6.016000000     7.315000000
C    -0.895000000    -4.522000000     6.769000000
H    -0.180000000    -4.892000000     7.500000000
C    -0.686000000    -3.314000000     6.127000000
O     0.316000000    -2.452000000     6.486000000
C     1.331000000    -1.905000000     5.677000000
C     1.990000000    -0.785000000     6.150000000
H     1.689000000    -0.336000000     7.093000000
C     3.100000000    -0.297000000     5.448000000
O     3.807000000     0.785000000     5.922000000
C     4.514000000     1.658000000     5.148000000
C     5.924000000     1.749000000     5.185000000
H     6.422000000     1.024000000     5.824000000
C     6.618000000     2.670000000     4.395000000
H     7.696000000     2.633000000     4.533000000
C     5.976000000     3.519000000     3.495000000
H     6.548000000     4.274000000     2.963000000
C     4.575000000     3.452000000     3.446000000
C     3.846000000     2.468000000     4.207000000
H     2.798000000     2.278000000     3.991000000
C    -0.371000000     1.410000000    -0.473000000
H    -0.352000000     2.296000000    -1.103000000
C     0.202000000     0.194000000    -0.943000000
H     0.578000000     0.082000000    -1.957000000
C     0.338000000    -0.871000000    -0.103000000
H     1.010000000    -1.710000000    -0.380000000
C    -0.306000000    -0.880000000     1.112000000
H    -0.197000000    -1.753000000     1.751000000
C    -1.122000000     0.222000000     1.563000000
H    -1.635000000     0.109000000     2.515000000
C    -1.052000000     1.390000000     0.781000000
C    -2.056000000     2.459000000     1.250000000
O    -2.326000000     2.538000000     2.442000000
O    -2.435000000     3.420000000     0.563000000
O    -5.774000000     7.372000000     1.405000000
H    -6.707000000     7.262000000     1.587000000
H    -5.398000000     6.504000000     1.550000000
O    -3.241000000     8.268000000     0.274000000
H    -2.635000000     7.613000000     0.620000000
H    -4.059000000     8.110000000     0.745000000
O    -5.985000000     1.312000000     5.091000000
H    -5.042000000     1.155000000     5.122000000
H    -6.070000000     2.265000000     5.106000000
O    -7.972000000    -0.068000000     3.910000000
H    -7.579000000     0.564000000     3.309000000
H    -7.531000000     0.087000000     4.744000000
O    -6.020000000     6.523000000     4.626000000
H    -6.075000000     7.239000000     5.259000000
H    -5.111000000     6.536000000     4.328000000
O     1.079000000     3.506000000     7.014000000
H     1.618000000     4.127000000     6.525000000
H     0.790000000     2.872000000     6.359000000
O    -3.418000000     6.614000000     3.729000000
H    -3.100000000     7.516000000     3.774000000
H    -2.997000000     6.250000000     2.951000000
O    -7.367000000     4.907000000    -0.997000000
H    -6.516000000     4.880000000    -0.560000000
H    -7.226000000     4.449000000    -1.825000000
O    -0.211000000     4.287000000     3.801000000
H    -0.572000000     4.060000000     2.944000000
H    -0.499000000     3.578000000     4.376000000
O    -0.309000000     1.760000000     5.240000000
H    -1.256000000     1.619000000     5.230000000
H     0.053000000     0.986000000     4.809000000
O    -3.215000000     4.137000000     5.072000000
H    -3.228000000     4.478000000     5.966000000
H    -2.945000000     4.882000000     4.535000000
O    -3.533000000     0.050000000     7.255000000
H    -3.423000000     0.227000000     6.321000000
H    -3.128000000     0.800000000     7.690000000
O    -2.949000000     1.532000000     4.758000000
H    -3.228000000     2.421000000     4.974000000
H    -2.663000000     1.585000000     3.846000000
O     1.755000000     5.572000000     5.149000000
H     2.236000000     6.270000000     4.704000000
H     1.052000000     5.342000000     4.541000000
O    -4.910000000     4.531000000     0.302000000
H    -3.985000000     4.347000000     0.137000000
H    -5.140000000     3.962000000     1.036000000
O    -6.193000000     3.828000000     5.999000000
H    -6.615000000     4.647000000     5.738000000
H    -5.421000000     4.103000000     6.494000000
O    -4.876000000     2.949000000     2.720000000
H    -4.708000000     3.608000000     3.394000000
H    -4.031000000     2.519000000     2.591000000
O    -1.925000000     5.798000000     1.569000000
H    -2.115000000     4.870000000     1.431000000
H    -0.983000000     5.874000000     1.417000000
O    -7.795000000     2.689000000     2.228000000
H    -7.764000000     2.507000000     1.289000000
H    -6.880000000     2.829000000     2.475000000
