215
-1434.15480
C    -4.544000000     2.522000000    -1.915000000
H    -5.041000000     1.557000000    -1.969000000
C    -3.328000000     2.590000000    -2.634000000
C    -2.769000000     3.862000000    -2.650000000
H    -1.834000000     4.009000000    -3.185000000
C    -2.730000000     1.343000000    -3.254000000
O    -3.588000000     0.256000000    -3.648000000
H    -1.982000000     0.953000000    -2.548000000
O    -1.993000000     1.733000000    -4.380000000
C    -0.743000000     1.231000000    -4.392000000
C     0.298000000     1.989000000    -3.833000000
H     0.163000000     3.014000000    -3.499000000
C     1.603000000     1.512000000    -3.763000000
O     2.569000000     2.318000000    -3.159000000
C     1.843000000     0.240000000    -4.245000000
C     3.209000000    -0.366000000    -4.264000000
H     3.312000000    -1.138000000    -5.029000000
C     3.638000000    -1.031000000    -2.994000000
C     3.332000000    -2.396000000    -2.742000000
H     2.804000000    -3.002000000    -3.474000000
H     3.885000000     0.446000000    -4.541000000
C     0.864000000    -0.497000000    -4.913000000
H     1.114000000    -1.504000000    -5.238000000
C    -0.446000000    -0.065000000    -4.909000000
C    -1.560000000    -0.951000000    -5.407000000
H    -1.188000000    -1.818000000    -5.957000000
H    -2.382000000    -0.483000000    -5.952000000
C    -2.169000000    -1.586000000    -4.163000000
C    -1.647000000    -2.844000000    -3.754000000
H    -0.873000000    -3.368000000    -4.308000000
C    -3.189000000    -0.975000000    -3.348000000
C    -3.700000000    -1.551000000    -2.156000000
H    -4.451000000    -1.035000000    -1.564000000
C    -3.259000000    -2.840000000    -1.912000000
O    -3.725000000    -3.364000000    -0.728000000
C    -2.931000000    -3.132000000     0.391000000
C    -3.465000000    -2.585000000     1.648000000
C    -3.132000000    -3.200000000     2.878000000
H    -2.427000000    -4.022000000     2.969000000
C    -4.202000000    -1.425000000     1.619000000
H    -4.566000000    -0.981000000     0.696000000
O    -2.155000000    -4.346000000     0.640000000
H    -2.225000000    -2.330000000     0.132000000
C    -2.241000000    -3.471000000    -2.613000000
C    -1.773000000    -4.832000000    -2.207000000
H    -1.399000000    -5.387000000    -3.069000000
H    -2.569000000    -5.357000000    -1.675000000
C    -0.578000000    -4.706000000    -1.236000000
C     0.722000000    -4.842000000    -1.636000000
H     0.967000000    -5.081000000    -2.668000000
C    -0.891000000    -4.459000000     0.121000000
C     0.147000000    -4.282000000     1.048000000
H    -0.098000000    -4.113000000     2.094000000
C     1.457000000    -4.237000000     0.628000000
O     2.510000000    -4.008000000     1.530000000
C     3.039000000    -2.660000000     1.526000000
C     3.035000000    -2.137000000     2.948000000
C     2.297000000    -2.744000000     4.029000000
H     1.681000000    -3.629000000     3.900000000
C     3.666000000    -0.961000000     3.301000000
H     4.227000000    -0.471000000     2.509000000
O     4.302000000    -2.514000000     0.844000000
H     2.305000000    -2.051000000     0.979000000
C     1.778000000    -4.555000000    -0.727000000
C     3.179000000    -4.500000000    -1.207000000
H     3.438000000    -5.184000000    -2.018000000
H     3.840000000    -4.762000000    -0.379000000
C     3.479000000    -3.007000000    -1.481000000
C     4.156000000    -2.165000000    -0.483000000
C     4.485000000    -0.855000000    -0.734000000
H     4.849000000    -0.229000000     0.077000000
C     4.180000000    -0.271000000    -1.936000000
O     4.356000000     1.086000000    -2.041000000
C     3.132000000     1.835000000    -1.930000000
H     2.480000000     1.117000000    -1.411000000
C     3.319000000     3.040000000    -0.994000000
C     2.357000000     4.004000000    -0.985000000
H     1.511000000     4.017000000    -1.667000000
C     4.490000000     3.110000000    -0.131000000
H     5.291000000     2.378000000    -0.192000000
C     4.624000000     4.247000000     0.660000000
O     5.542000000     4.265000000     1.729000000
C     3.563000000     5.126000000     0.682000000
H     3.583000000     5.962000000     1.376000000
C     2.537000000     5.158000000    -0.233000000
O     1.727000000     6.296000000    -0.293000000
C     0.826000000     6.506000000    -1.291000000
C    -0.501000000     6.031000000    -1.320000000
H    -0.818000000     5.405000000    -0.489000000
C     1.280000000     7.286000000    -2.360000000
H     2.311000000     7.628000000    -2.321000000
C     0.312000000     7.644000000    -3.346000000
H     0.580000000     8.261000000    -4.200000000
C    -1.000000000     7.267000000    -3.281000000
H    -1.691000000     7.618000000    -4.043000000
C    -1.440000000     6.439000000    -2.256000000
O    -2.785000000     6.131000000    -2.133000000
C    -3.306000000     4.924000000    -1.947000000
C    -4.497000000     4.767000000    -1.266000000
H    -5.029000000     5.635000000    -0.887000000
C    -5.148000000     3.553000000    -1.185000000
O    -6.467000000     3.434000000    -0.691000000
C    -6.810000000     2.283000000    -0.030000000
C    -6.045000000     1.842000000     1.049000000
H    -5.205000000     2.437000000     1.396000000
C    -7.715000000     1.380000000    -0.587000000
H    -8.335000000     1.729000000    -1.409000000
C    -7.890000000     0.124000000     0.088000000
H    -8.566000000    -0.647000000    -0.273000000
C    -7.203000000    -0.193000000     1.249000000
H    -7.370000000    -1.175000000     1.685000000
C    -6.246000000     0.650000000     1.730000000
O    -5.493000000     0.212000000     2.828000000
C    -4.560000000    -0.817000000     2.783000000
C    -4.280000000    -1.340000000     3.998000000
H    -4.616000000    -0.887000000     4.927000000
C    -3.481000000    -2.547000000     4.046000000
O    -3.215000000    -3.104000000     5.278000000
C    -1.995000000    -3.655000000     5.507000000
C    -0.857000000    -2.856000000     5.815000000
H    -0.969000000    -1.775000000     5.830000000
C    -1.828000000    -4.997000000     5.467000000
H    -2.708000000    -5.574000000     5.197000000
C    -0.627000000    -5.664000000     5.691000000
H    -0.619000000    -6.751000000     5.671000000
C     0.519000000    -4.909000000     6.082000000
H     1.398000000    -5.485000000     6.361000000
C     0.403000000    -3.509000000     6.020000000
O     1.531000000    -2.853000000     6.256000000
C     2.289000000    -2.189000000     5.306000000
C     3.015000000    -1.047000000     5.607000000
H     2.992000000    -0.593000000     6.594000000
C     3.593000000    -0.352000000     4.554000000
O     4.329000000     0.793000000     4.793000000
C     5.262000000     1.428000000     3.919000000
C     6.637000000     1.351000000     4.231000000
H     6.956000000     0.535000000     4.874000000
C     7.579000000     2.049000000     3.494000000
H     8.636000000     1.864000000     3.667000000
C     7.230000000     2.894000000     2.511000000
H     7.891000000     3.407000000     1.817000000
C     5.902000000     3.195000000     2.441000000
C     4.882000000     2.484000000     3.063000000
H     3.840000000     2.773000000     2.949000000
C    -1.104000000     1.868000000     0.292000000
H    -1.295000000     2.728000000    -0.345000000
C    -0.439000000     0.760000000    -0.216000000
H    -0.106000000     0.736000000    -1.250000000
C    -0.070000000    -0.254000000     0.584000000
H     0.466000000    -1.077000000     0.137000000
C    -0.341000000    -0.205000000     1.912000000
H     0.139000000    -0.923000000     2.571000000
C    -1.052000000     0.880000000     2.423000000
H    -1.359000000     0.888000000     3.465000000
C    -1.528000000     1.872000000     1.592000000
C    -2.329000000     3.005000000     2.110000000
O    -2.834000000     3.004000000     3.260000000
O    -2.506000000     3.970000000     1.406000000
O    -5.184000000     7.264000000     1.297000000
H    -4.790000000     7.677000000     2.066000000
H    -5.147000000     6.326000000     1.484000000
O    -0.304000000     9.087000000     1.541000000
H    -0.216000000     9.340000000     2.460000000
H    -0.918000000     8.353000000     1.553000000
O    -4.015000000     9.398000000     2.729000000
H    -4.142000000    10.290000000     3.052000000
H    -3.540000000     8.954000000     3.433000000
O    -8.149000000     1.439000000     4.666000000
H    -8.615000000     2.193000000     5.028000000
H    -7.229000000     1.704000000     4.665000000
O    -2.457000000     0.646000000     6.959000000
H    -1.726000000     1.092000000     6.532000000
H    -3.178000000     1.274000000     6.917000000
O    -2.780000000     7.228000000     4.104000000
H    -2.028000000     7.061000000     3.534000000
H    -2.421000000     7.191000000     4.990000000
O    -3.168000000     9.024000000     0.040000000
H    -3.418000000     9.526000000     0.816000000
H    -3.549000000     8.158000000     0.182000000
O    -5.026000000     5.274000000     5.389000000
H    -4.529000000     5.994000000     5.000000000
H    -5.305000000     5.609000000     6.241000000
O    -7.794000000     5.975000000     4.990000000
H    -7.016000000     5.426000000     5.087000000
H    -7.840000000     6.162000000     4.053000000
O    -8.580000000     5.191000000     0.458000000
H    -9.412000000     4.718000000     0.447000000
H    -7.937000000     4.553000000     0.148000000
O    -1.373000000     4.430000000     4.599000000
H    -2.046000000     3.943000000     4.123000000
H    -1.744000000     5.304000000     4.712000000
O    -5.874000000     1.237000000     6.890000000
H    -6.480000000     1.512000000     7.579000000
H    -5.398000000     2.034000000     6.657000000
O    -2.307000000     4.836000000     7.570000000
H    -2.148000000     4.141000000     6.931000000
H    -2.428000000     4.374000000     8.400000000
O     2.202000000     2.527000000     5.793000000
H     2.606000000     2.493000000     6.660000000
H     2.839000000     2.108000000     5.215000000
O    -0.506000000     2.099000000     6.021000000
H     0.422000000     1.919000000     5.872000000
H    -0.729000000     2.760000000     5.366000000
O    -5.115000000     4.709000000     2.386000000
H    -4.344000000     4.340000000     1.954000000
H    -4.972000000     4.538000000     3.317000000
O     1.161000000     4.912000000     5.378000000
H     0.300000000     4.786000000     4.979000000
H     1.530000000     4.030000000     5.435000000
O    -3.793000000     2.819000000     5.814000000
H    -4.183000000     3.693000000     5.786000000
H    -3.597000000     2.615000000     4.900000000
O    -1.195000000     6.483000000     1.837000000
H    -0.388000000     6.117000000     1.475000000
H    -1.884000000     5.895000000     1.528000000
