215
-1460.34899
C    -4.865000000     1.961000000    -1.156000000
H    -5.219000000     0.940000000    -1.037000000
C    -3.746000000     2.358000000    -1.919000000
C    -3.352000000     3.700000000    -1.935000000
H    -2.585000000     4.024000000    -2.633000000
C    -2.925000000     1.252000000    -2.672000000
O    -3.829000000     0.195000000    -3.023000000
H    -2.116000000     0.815000000    -2.068000000
O    -2.432000000     1.812000000    -3.857000000
C    -1.133000000     1.430000000    -4.148000000
C    -0.085000000     2.337000000    -3.755000000
H    -0.365000000     3.265000000    -3.265000000
C     1.204000000     1.886000000    -3.835000000
O     2.127000000     2.665000000    -3.239000000
C     1.566000000     0.684000000    -4.409000000
C     3.007000000     0.242000000    -4.548000000
H     3.023000000    -0.411000000    -5.423000000
C     3.483000000    -0.481000000    -3.284000000
C     3.409000000    -1.903000000    -3.219000000
H     2.879000000    -2.461000000    -3.987000000
H     3.565000000     1.153000000    -4.774000000
C     0.535000000    -0.187000000    -4.778000000
H     0.741000000    -1.149000000    -5.240000000
C    -0.811000000     0.255000000    -4.764000000
C    -1.883000000    -0.725000000    -5.121000000
H    -1.549000000    -1.417000000    -5.897000000
H    -2.649000000    -0.159000000    -5.656000000
C    -2.338000000    -1.597000000    -3.907000000
C    -1.801000000    -2.917000000    -3.752000000
H    -0.966000000    -3.207000000    -4.385000000
C    -3.322000000    -1.134000000    -3.019000000
C    -3.705000000    -2.016000000    -1.956000000
H    -4.475000000    -1.652000000    -1.282000000
C    -3.138000000    -3.204000000    -1.810000000
O    -3.398000000    -3.832000000    -0.606000000
C    -2.462000000    -3.584000000     0.413000000
C    -3.037000000    -3.107000000     1.707000000
C    -2.236000000    -3.148000000     2.871000000
H    -1.259000000    -3.618000000     2.792000000
C    -4.371000000    -2.536000000     1.794000000
H    -4.880000000    -2.462000000     0.836000000
O    -1.621000000    -4.751000000     0.626000000
H    -1.743000000    -2.838000000     0.046000000
C    -2.184000000    -3.682000000    -2.654000000
C    -1.498000000    -5.018000000    -2.371000000
H    -1.175000000    -5.380000000    -3.349000000
H    -2.231000000    -5.681000000    -1.906000000
C    -0.239000000    -4.829000000    -1.462000000
C     1.000000000    -4.602000000    -2.007000000
H     1.119000000    -4.566000000    -3.086000000
C    -0.399000000    -4.750000000    -0.080000000
C     0.651000000    -4.493000000     0.681000000
H     0.542000000    -4.378000000     1.757000000
C     1.921000000    -4.172000000     0.210000000
O     2.936000000    -3.724000000     1.124000000
C     3.418000000    -2.351000000     1.094000000
C     3.712000000    -1.907000000     2.529000000
C     2.791000000    -2.246000000     3.526000000
H     1.894000000    -2.828000000     3.332000000
C     4.765000000    -1.008000000     2.827000000
H     5.469000000    -0.678000000     2.067000000
O     4.619000000    -2.234000000     0.242000000
H     2.596000000    -1.687000000     0.790000000
C     2.037000000    -4.248000000    -1.200000000
C     3.403000000    -3.964000000    -1.866000000
H     3.479000000    -4.421000000    -2.855000000
H     4.170000000    -4.450000000    -1.260000000
C     3.760000000    -2.499000000    -2.016000000
C     4.332000000    -1.714000000    -0.960000000
C     4.496000000    -0.310000000    -1.076000000
H     4.973000000     0.269000000    -0.289000000
C     4.084000000     0.296000000    -2.274000000
O     4.021000000     1.674000000    -2.260000000
C     2.744000000     2.300000000    -2.032000000
H     2.122000000     1.565000000    -1.501000000
C     2.890000000     3.487000000    -1.098000000
C     1.923000000     4.467000000    -1.074000000
H     1.065000000     4.349000000    -1.731000000
C     3.823000000     3.372000000    -0.042000000
H     4.596000000     2.608000000    -0.059000000
C     3.848000000     4.431000000     0.876000000
O     4.710000000     4.463000000     1.992000000
C     2.917000000     5.489000000     0.825000000
H     2.975000000     6.187000000     1.656000000
C     1.934000000     5.501000000    -0.179000000
O     1.011000000     6.518000000    -0.193000000
C     0.007000000     6.674000000    -1.131000000
C    -1.268000000     6.257000000    -0.760000000
H    -1.326000000     5.770000000     0.210000000
C     0.147000000     7.372000000    -2.410000000
H     1.140000000     7.787000000    -2.562000000
C    -0.917000000     7.527000000    -3.227000000
H    -0.749000000     8.006000000    -4.188000000
C    -2.171000000     7.117000000    -2.814000000
H    -3.049000000     7.310000000    -3.425000000
C    -2.358000000     6.324000000    -1.630000000
O    -3.600000000     5.934000000    -1.170000000
C    -3.932000000     4.608000000    -1.046000000
C    -4.952000000     4.203000000    -0.223000000
H    -5.465000000     4.945000000     0.384000000
C    -5.376000000     2.906000000    -0.269000000
O    -6.390000000     2.613000000     0.627000000
C    -6.869000000     1.372000000     0.986000000
C    -6.163000000     0.508000000     1.785000000
H    -5.219000000     0.853000000     2.199000000
C    -8.030000000     0.924000000     0.374000000
H    -8.567000000     1.610000000    -0.276000000
C    -8.542000000    -0.357000000     0.654000000
H    -9.490000000    -0.678000000     0.229000000
C    -7.858000000    -1.193000000     1.561000000
H    -8.215000000    -2.207000000     1.726000000
C    -6.702000000    -0.720000000     2.127000000
O    -6.078000000    -1.508000000     3.047000000
C    -4.810000000    -2.020000000     2.955000000
C    -4.136000000    -2.244000000     4.136000000
H    -4.622000000    -1.971000000     5.070000000
C    -2.896000000    -2.763000000     4.105000000
O    -2.337000000    -2.979000000     5.310000000
C    -1.110000000    -3.534000000     5.505000000
C    -0.093000000    -2.643000000     5.626000000
H    -0.270000000    -1.571000000     5.666000000
C    -0.899000000    -4.912000000     5.581000000
H    -1.813000000    -5.501000000     5.605000000
C     0.370000000    -5.456000000     5.680000000
H     0.589000000    -6.501000000     5.881000000
C     1.438000000    -4.577000000     5.739000000
H     2.459000000    -4.933000000     5.849000000
C     1.221000000    -3.166000000     5.704000000
O     2.330000000    -2.300000000     5.871000000
C     3.012000000    -1.781000000     4.821000000
C     4.094000000    -0.936000000     5.141000000
H     4.225000000    -0.536000000     6.143000000
C     4.937000000    -0.469000000     4.068000000
O     5.857000000     0.440000000     4.350000000
C     6.295000000     1.524000000     3.587000000
C     7.505000000     1.409000000     2.906000000
H     8.269000000     0.700000000     3.217000000
C     7.797000000     2.401000000     1.954000000
H     8.781000000     2.407000000     1.493000000
C     6.906000000     3.458000000     1.669000000
H     7.173000000     4.239000000     0.961000000
C     5.672000000     3.504000000     2.312000000
C     5.404000000     2.537000000     3.250000000
H     4.434000000     2.580000000     3.739000000
C    -0.195000000     1.964000000     0.594000000
H    -0.315000000     2.937000000     0.125000000
C    -0.137000000     0.887000000    -0.279000000
H    -0.337000000     1.041000000    -1.336000000
C     0.119000000    -0.391000000     0.248000000
H     0.200000000    -1.260000000    -0.385000000
C     0.163000000    -0.601000000     1.625000000
H     0.226000000    -1.642000000     1.933000000
C     0.111000000     0.494000000     2.479000000
H     0.256000000     0.360000000     3.548000000
C    -0.021000000     1.754000000     1.965000000
C     0.200000000     2.955000000     2.794000000
O     0.378000000     2.898000000     4.046000000
O     0.086000000     4.098000000     2.413000000
O    -4.193000000     7.245000000     1.816000000
H    -3.487000000     6.601000000     1.749000000
H    -4.833000000     6.837000000     2.399000000
O     1.008000000     6.514000000     2.992000000
H     0.177000000     6.964000000     3.144000000
H     0.759000000     5.615000000     2.780000000
O    -2.457000000     3.485000000     8.648000000
H    -2.762000000     2.754000000     9.187000000
H    -1.950000000     3.072000000     7.950000000
O     1.952000000     1.216000000     6.542000000
H     2.902000000     1.204000000     6.666000000
H     1.816000000     1.791000000     5.789000000
O     1.070000000     3.581000000     7.874000000
H     1.472000000     3.130000000     8.616000000
H     1.551000000     3.262000000     7.110000000
O    -2.954000000     3.949000000     5.171000000
H    -2.095000000     4.272000000     5.443000000
H    -2.870000000     2.996000000     5.196000000
O    -2.572000000     7.312000000     5.976000000
H    -1.976000000     6.699000000     6.407000000
H    -2.194000000     7.441000000     5.106000000
O    -1.369000000     7.963000000     3.486000000
H    -1.761000000     8.700000000     3.017000000
H    -1.867000000     7.200000000     3.191000000
O     4.561000000     4.630000000     7.165000000
H     5.300000000     4.043000000     7.005000000
H     3.855000000     4.279000000     6.622000000
O    -3.312000000     0.182000000     6.262000000
H    -3.169000000    -0.744000000     6.460000000
H    -2.473000000     0.601000000     6.455000000
O     1.192000000    -0.681000000     8.333000000
H     1.432000000    -0.456000000     7.434000000
H     0.283000000    -0.975000000     8.272000000
O    -5.173000000     3.187000000     2.922000000
H    -5.643000000     3.057000000     2.098000000
H    -5.242000000     4.127000000     3.091000000
O     2.362000000     6.905000000     5.282000000
H     2.200000000     7.229000000     4.396000000
H     3.116000000     7.409000000     5.588000000
O     2.630000000     3.789000000     5.455000000
H     2.854000000     4.672000000     5.160000000
H     1.826000000     3.576000000     4.982000000
O     1.523000000     9.064000000     0.662000000
H     1.954000000     9.432000000    -0.110000000
H     1.522000000     8.119000000     0.508000000
O    -2.266000000     5.511000000     3.021000000
H    -2.792000000     5.115000000     3.715000000
H    -1.512000000     4.930000000     2.929000000
O    -5.030000000     2.042000000     5.650000000
H    -4.860000000     2.264000000     4.734000000
H    -4.378000000     1.374000000     5.860000000
O    -1.034000000     1.812000000     6.064000000
H    -0.831000000     2.258000000     5.242000000
H    -0.299000000     2.024000000     6.640000000
O    -0.601000000     5.040000000     5.668000000
H    -0.085000000     5.195000000     4.876000000
H     0.050000000     4.949000000     6.364000000
