215
-1477.09833
C    -4.446000000     1.920000000    -1.247000000
H    -4.682000000     0.901000000    -0.951000000
C    -3.620000000     2.238000000    -2.326000000
C    -3.407000000     3.607000000    -2.581000000
H    -2.813000000     4.027000000    -3.389000000
C    -2.847000000     1.159000000    -3.042000000
O    -3.694000000     0.034000000    -3.353000000
H    -2.105000000     0.851000000    -2.289000000
O    -2.238000000     1.599000000    -4.278000000
C    -0.961000000     1.177000000    -4.421000000
C     0.054000000     2.074000000    -4.164000000
H    -0.207000000     3.030000000    -3.718000000
C     1.364000000     1.646000000    -4.257000000
O     2.268000000     2.506000000    -3.646000000
C     1.723000000     0.391000000    -4.656000000
C     3.199000000    -0.133000000    -4.659000000
H     3.174000000    -0.842000000    -5.488000000
C     3.665000000    -0.673000000    -3.317000000
C     3.749000000    -2.077000000    -3.221000000
H     3.557000000    -2.763000000    -4.042000000
H     3.804000000     0.703000000    -5.017000000
C     0.669000000    -0.499000000    -4.961000000
H     0.951000000    -1.491000000    -5.307000000
C    -0.704000000    -0.107000000    -4.890000000
C    -1.779000000    -1.087000000    -5.225000000
H    -1.479000000    -1.954000000    -5.816000000
H    -2.621000000    -0.687000000    -5.793000000
C    -2.143000000    -1.743000000    -3.931000000
C    -1.493000000    -2.937000000    -3.529000000
H    -0.649000000    -3.234000000    -4.146000000
C    -3.144000000    -1.222000000    -3.085000000
C    -3.445000000    -1.806000000    -1.854000000
H    -4.099000000    -1.310000000    -1.142000000
C    -2.882000000    -3.029000000    -1.521000000
O    -3.112000000    -3.636000000    -0.275000000
C    -2.112000000    -3.373000000     0.718000000
C    -2.697000000    -2.925000000     2.024000000
C    -1.914000000    -2.914000000     3.183000000
H    -0.900000000    -3.304000000     3.145000000
C    -4.014000000    -2.399000000     2.067000000
H    -4.658000000    -2.509000000     1.198000000
O    -1.262000000    -4.528000000     0.889000000
H    -1.464000000    -2.584000000     0.307000000
C    -1.906000000    -3.663000000    -2.355000000
C    -1.273000000    -4.965000000    -1.992000000
H    -0.875000000    -5.409000000    -2.907000000
H    -1.890000000    -5.684000000    -1.447000000
C     0.011000000    -4.730000000    -1.234000000
C     1.216000000    -4.649000000    -1.871000000
H     1.321000000    -4.681000000    -2.953000000
C    -0.003000000    -4.546000000     0.162000000
C     1.133000000    -4.406000000     0.914000000
H     1.034000000    -4.166000000     1.969000000
C     2.346000000    -4.260000000     0.278000000
O     3.375000000    -3.866000000     1.098000000
C     3.560000000    -2.447000000     1.296000000
C     3.923000000    -2.145000000     2.786000000
C     3.462000000    -2.923000000     3.790000000
H     2.881000000    -3.814000000     3.568000000
C     4.355000000    -0.869000000     3.082000000
H     4.822000000    -0.209000000     2.355000000
O     4.632000000    -2.034000000     0.442000000
H     2.619000000    -1.891000000     1.168000000
C     2.362000000    -4.324000000    -1.170000000
C     3.698000000    -4.017000000    -1.745000000
H     3.886000000    -4.575000000    -2.665000000
H     4.457000000    -4.497000000    -1.123000000
C     3.953000000    -2.578000000    -1.902000000
C     4.357000000    -1.747000000    -0.875000000
C     4.525000000    -0.358000000    -1.126000000
H     4.834000000     0.310000000    -0.326000000
C     4.081000000     0.187000000    -2.278000000
O     3.978000000     1.560000000    -2.313000000
C     2.609000000     2.160000000    -2.250000000
H     1.869000000     1.421000000    -1.908000000
C     2.561000000     3.397000000    -1.398000000
C     1.867000000     4.529000000    -1.795000000
H     1.571000000     4.545000000    -2.841000000
C     2.954000000     3.296000000    -0.042000000
H     3.279000000     2.343000000     0.370000000
C     2.770000000     4.324000000     0.840000000
O     3.107000000     4.339000000     2.153000000
C     2.117000000     5.521000000     0.387000000
H     1.972000000     6.358000000     1.066000000
C     1.570000000     5.569000000    -0.905000000
O     1.015000000     6.711000000    -1.276000000
C    -0.181000000     6.829000000    -1.998000000
C    -1.354000000     6.281000000    -1.521000000
H    -1.342000000     5.834000000    -0.530000000
C    -0.147000000     7.459000000    -3.241000000
H     0.812000000     7.838000000    -3.586000000
C    -1.294000000     7.600000000    -4.009000000
H    -1.237000000     7.975000000    -5.028000000
C    -2.483000000     7.127000000    -3.493000000
H    -3.436000000     7.182000000    -4.012000000
C    -2.534000000     6.436000000    -2.264000000
O    -3.672000000     5.912000000    -1.721000000
C    -3.902000000     4.541000000    -1.696000000
C    -4.788000000     4.191000000    -0.667000000
H    -5.229000000     4.919000000     0.010000000
C    -5.033000000     2.871000000    -0.474000000
O    -6.003000000     2.619000000     0.553000000
C    -6.560000000     1.397000000     0.819000000
C    -5.938000000     0.634000000     1.791000000
H    -5.143000000     1.125000000     2.347000000
C    -7.753000000     0.926000000     0.200000000
H    -8.328000000     1.649000000    -0.372000000
C    -8.301000000    -0.283000000     0.548000000
H    -9.244000000    -0.617000000     0.125000000
C    -7.681000000    -1.041000000     1.576000000
H    -8.017000000    -2.029000000     1.881000000
C    -6.465000000    -0.612000000     2.199000000
O    -5.864000000    -1.359000000     3.258000000
C    -4.514000000    -1.806000000     3.207000000
C    -3.733000000    -1.835000000     4.358000000
H    -4.269000000    -1.506000000     5.244000000
C    -2.504000000    -2.455000000     4.381000000
O    -1.711000000    -2.423000000     5.509000000
C    -0.659000000    -3.288000000     5.755000000
C     0.642000000    -2.791000000     5.951000000
H     0.908000000    -1.739000000     6.011000000
C    -0.890000000    -4.671000000     5.774000000
H    -1.869000000    -5.096000000     5.568000000
C     0.161000000    -5.481000000     6.169000000
H    -0.022000000    -6.552000000     6.213000000
C     1.428000000    -4.995000000     6.298000000
H     2.131000000    -5.731000000     6.679000000
C     1.704000000    -3.663000000     6.114000000
O     2.932000000    -3.150000000     6.115000000
C     3.536000000    -2.501000000     5.081000000
C     4.028000000    -1.213000000     5.404000000
H     4.003000000    -0.912000000     6.448000000
C     4.507000000    -0.426000000     4.389000000
O     5.126000000     0.753000000     4.671000000
C     5.189000000     1.853000000     3.889000000
C     6.423000000     2.396000000     3.652000000
H     7.305000000     1.884000000     4.029000000
C     6.606000000     3.483000000     2.917000000
H     7.604000000     3.877000000     2.743000000
C     5.500000000     4.153000000     2.387000000
H     5.529000000     5.063000000     1.794000000
C     4.215000000     3.611000000     2.654000000
C     4.058000000     2.415000000     3.318000000
H     3.070000000     2.080000000     3.621000000
C    -0.561000000     2.283000000     0.775000000
H    -0.859000000     3.313000000     0.593000000
C    -0.487000000     1.489000000    -0.382000000
H    -0.663000000     1.909000000    -1.368000000
C    -0.019000000     0.243000000    -0.281000000
H     0.112000000    -0.394000000    -1.182000000
C     0.301000000    -0.331000000     0.949000000
H     0.650000000    -1.359000000     1.008000000
C     0.190000000     0.431000000     2.131000000
H     0.544000000     0.093000000     3.101000000
C    -0.263000000     1.777000000     2.065000000
C    -0.416000000     2.577000000     3.292000000
O    -0.076000000     2.117000000     4.370000000
O    -1.036000000     3.633000000     3.203000000
O    -3.706000000     7.421000000     1.246000000
H    -3.388000000     6.571000000     1.551000000
H    -4.534000000     7.547000000     1.709000000
O     0.637000000     6.163000000     3.771000000
H     0.400000000     5.271000000     3.517000000
H    -0.017000000     6.716000000     3.344000000
O    -1.146000000    -0.600000000     8.061000000
H    -1.485000000    -1.264000000     7.461000000
H    -1.652000000    -0.722000000     8.864000000
O     1.594000000     1.022000000     6.074000000
H     1.941000000     1.879000000     6.324000000
H     0.944000000     1.215000000     5.398000000
O     1.362000000     3.183000000     9.307000000
H     2.043000000     2.606000000     9.651000000
H     1.659000000     3.407000000     8.426000000
O    -2.275000000     5.937000000     5.299000000
H    -2.039000000     5.437000000     4.518000000
H    -2.019000000     5.374000000     6.030000000
O    -0.794000000     9.019000000     4.628000000
H    -0.673000000     8.171000000     5.056000000
H    -1.067000000     8.801000000     3.737000000
O    -2.112000000     1.860000000     9.212000000
H    -1.723000000     1.562000000     8.391000000
H    -2.835000000     1.252000000     9.369000000
O    -1.005000000     7.676000000     1.939000000
H    -0.558000000     8.272000000     1.338000000
H    -1.840000000     7.487000000     1.511000000
O    -1.791000000     1.839000000     6.215000000
H    -1.360000000     1.014000000     6.436000000
H    -1.220000000     2.240000000     5.560000000
O     1.780000000    -0.557000000     8.170000000
H     1.698000000    -0.072000000     7.349000000
H     0.883000000    -0.629000000     8.497000000
O    -3.957000000     7.714000000     6.368000000
H    -3.280000000     7.265000000     5.862000000
H    -4.654000000     7.065000000     6.465000000
O    -4.115000000     3.065000000     3.969000000
H    -3.379000000     2.495000000     3.745000000
H    -4.050000000     3.794000000     3.353000000
O     3.059000000     6.469000000     4.491000000
H     2.118000000     6.528000000     4.329000000
H     3.439000000     6.285000000     3.632000000
O     1.881000000     3.636000000     6.000000000
H     0.999000000     3.936000000     5.779000000
H     2.460000000     4.310000000     5.645000000
O    -2.922000000     4.835000000     1.859000000
H    -3.162000000     4.343000000     1.074000000
H    -2.224000000     4.318000000     2.261000000
O    -4.556000000     1.649000000     6.155000000
H    -4.915000000     2.371000000     5.639000000
H    -3.615000000     1.678000000     5.986000000
O    -0.695000000     4.470000000     7.323000000
H    -0.817000000     3.680000000     6.796000000
H     0.076000000     4.283000000     7.859000000
O    -5.842000000     5.207000000     6.205000000
H    -5.131000000     4.726000000     5.780000000
H    -6.595000000     5.080000000     5.628000000
