215
-1439.44937
C    -5.159000000     0.411000000    -1.536000000
H    -5.372000000    -0.639000000    -1.723000000
C    -4.103000000     1.110000000    -2.131000000
C    -3.939000000     2.498000000    -1.927000000
H    -3.160000000     3.118000000    -2.363000000
C    -3.025000000     0.299000000    -2.896000000
O    -3.465000000    -0.952000000    -3.410000000
H    -2.220000000     0.039000000    -2.193000000
O    -2.524000000     1.143000000    -4.019000000
C    -1.185000000     1.159000000    -4.236000000
C    -0.531000000     2.292000000    -3.760000000
H    -0.889000000     3.148000000    -3.193000000
C     0.875000000     2.359000000    -3.983000000
O     1.554000000     3.460000000    -3.465000000
C     1.620000000     1.300000000    -4.535000000
C     3.147000000     1.213000000    -4.484000000
H     3.496000000     0.631000000    -5.339000000
C     3.704000000     0.758000000    -3.175000000
C     3.877000000    -0.579000000    -3.006000000
H     3.672000000    -1.341000000    -3.754000000
H     3.612000000     2.173000000    -4.723000000
C     0.922000000     0.195000000    -4.961000000
H     1.403000000    -0.623000000    -5.491000000
C    -0.459000000     0.099000000    -4.785000000
C    -1.236000000    -1.071000000    -5.349000000
H    -0.685000000    -1.474000000    -6.202000000
H    -2.208000000    -0.739000000    -5.719000000
C    -1.446000000    -2.028000000    -4.249000000
C    -0.513000000    -2.999000000    -3.935000000
H     0.418000000    -3.151000000    -4.477000000
C    -2.598000000    -1.962000000    -3.370000000
C    -2.802000000    -2.840000000    -2.326000000
H    -3.720000000    -2.788000000    -1.745000000
C    -1.756000000    -3.708000000    -1.999000000
O    -1.882000000    -4.479000000    -0.852000000
C    -0.993000000    -4.224000000     0.218000000
C    -1.655000000    -3.942000000     1.514000000
C    -1.051000000    -4.391000000     2.687000000
H    -0.113000000    -4.940000000     2.682000000
C    -2.769000000    -3.058000000     1.531000000
H    -3.080000000    -2.548000000     0.622000000
O     0.115000000    -5.242000000     0.341000000
H    -0.541000000    -3.277000000    -0.112000000
C    -0.637000000    -3.847000000    -2.810000000
C     0.382000000    -4.975000000    -2.540000000
H     0.790000000    -5.333000000    -3.487000000
H    -0.130000000    -5.848000000    -2.128000000
C     1.413000000    -4.487000000    -1.585000000
C     2.532000000    -3.707000000    -2.031000000
H     2.693000000    -3.448000000    -3.074000000
C     1.328000000    -4.754000000    -0.193000000
C     2.229000000    -4.192000000     0.716000000
H     2.068000000    -4.360000000     1.778000000
C     3.246000000    -3.336000000     0.220000000
O     4.158000000    -2.741000000     1.193000000
C     3.830000000    -1.356000000     1.416000000
C     3.797000000    -0.991000000     2.938000000
C     3.458000000    -1.846000000     3.961000000
H     3.165000000    -2.860000000     3.702000000
C     3.935000000     0.322000000     3.302000000
H     4.091000000     1.134000000     2.597000000
O     4.835000000    -0.548000000     0.641000000
H     2.833000000    -1.037000000     1.078000000
C     3.428000000    -3.176000000    -1.131000000
C     4.698000000    -2.472000000    -1.587000000
H     5.058000000    -2.848000000    -2.547000000
H     5.568000000    -2.593000000    -0.938000000
C     4.380000000    -0.990000000    -1.769000000
C     4.558000000    -0.106000000    -0.658000000
C     4.390000000     1.297000000    -0.905000000
H     4.617000000     1.954000000    -0.069000000
C     3.960000000     1.666000000    -2.087000000
O     3.545000000     3.012000000    -2.127000000
C     2.052000000     3.245000000    -2.171000000
H     1.612000000     2.304000000    -1.808000000
C     1.595000000     4.366000000    -1.281000000
C     0.604000000     5.249000000    -1.638000000
H     0.042000000     5.116000000    -2.559000000
C     1.953000000     4.260000000     0.084000000
H     2.704000000     3.500000000     0.287000000
C     1.470000000     5.166000000     1.043000000
O     1.837000000     5.111000000     2.391000000
C     0.623000000     6.142000000     0.601000000
H     0.303000000     6.920000000     1.290000000
C     0.090000000     6.160000000    -0.694000000
O    -0.879000000     7.006000000    -1.143000000
C    -2.001000000     6.627000000    -1.863000000
C    -2.767000000     5.649000000    -1.276000000
H    -2.520000000     5.300000000    -0.277000000
C    -2.436000000     7.255000000    -3.019000000
H    -1.809000000     8.049000000    -3.416000000
C    -3.692000000     6.969000000    -3.659000000
H    -3.953000000     7.371000000    -4.634000000
C    -4.461000000     6.043000000    -3.000000000
H    -5.494000000     5.904000000    -3.308000000
C    -4.067000000     5.409000000    -1.825000000
O    -4.995000000     4.590000000    -1.211000000
C    -4.941000000     3.187000000    -1.238000000
C    -6.015000000     2.464000000    -0.702000000
H    -6.922000000     2.926000000    -0.319000000
C    -6.114000000     1.136000000    -0.760000000
O    -7.220000000     0.502000000    -0.193000000
C    -6.995000000    -0.698000000     0.500000000
C    -5.961000000    -0.725000000     1.492000000
H    -5.355000000     0.154000000     1.699000000
C    -7.608000000    -1.880000000     0.139000000
H    -8.516000000    -1.884000000    -0.460000000
C    -7.134000000    -3.087000000     0.721000000
H    -7.634000000    -4.006000000     0.428000000
C    -6.170000000    -3.065000000     1.679000000
H    -5.945000000    -3.993000000     2.199000000
C    -5.513000000    -1.923000000     2.025000000
O    -4.423000000    -1.853000000     2.804000000
C    -3.314000000    -2.717000000     2.763000000
C    -2.822000000    -3.237000000     3.978000000
H    -3.290000000    -2.953000000     4.917000000
C    -1.631000000    -3.998000000     3.922000000
O    -1.269000000    -4.591000000     5.065000000
C     0.059000000    -4.614000000     5.401000000
C     0.810000000    -3.428000000     5.551000000
H     0.313000000    -2.490000000     5.323000000
C     0.698000000    -5.806000000     5.706000000
H     0.190000000    -6.766000000     5.679000000
C     2.047000000    -5.845000000     6.149000000
H     2.550000000    -6.773000000     6.411000000
C     2.750000000    -4.650000000     6.256000000
H     3.800000000    -4.618000000     6.537000000
C     2.150000000    -3.457000000     5.969000000
O     2.839000000    -2.301000000     6.227000000
C     3.251000000    -1.445000000     5.270000000
C     3.642000000    -0.189000000     5.647000000
H     3.677000000     0.017000000     6.714000000
C     3.962000000     0.678000000     4.641000000
O     4.364000000     1.965000000     5.053000000
C     4.252000000     3.077000000     4.240000000
C     5.365000000     3.898000000     4.057000000
H     6.313000000     3.591000000     4.491000000
C     5.367000000     5.038000000     3.240000000
H     6.255000000     5.611000000     2.985000000
C     4.192000000     5.439000000     2.658000000
H     4.255000000     6.403000000     2.159000000
C     3.043000000     4.748000000     2.892000000
C     3.109000000     3.562000000     3.567000000
H     2.243000000     2.906000000     3.623000000
C    -0.287000000     1.568000000     0.939000000
H    -0.611000000     2.598000000     0.813000000
C     0.007000000     0.691000000    -0.137000000
H     0.125000000     1.049000000    -1.157000000
C     0.453000000    -0.614000000     0.099000000
H     0.788000000    -1.227000000    -0.754000000
C     0.478000000    -1.077000000     1.398000000
H     0.744000000    -2.095000000     1.674000000
C     0.112000000    -0.223000000     2.445000000
H     0.105000000    -0.621000000     3.457000000
C    -0.277000000     1.141000000     2.220000000
C    -0.758000000     2.012000000     3.326000000
O    -0.545000000     1.749000000     4.473000000
O    -1.420000000     2.986000000     3.109000000
O    -2.189000000     8.058000000     3.201000000
H    -2.747000000     7.337000000     2.911000000
H    -2.692000000     8.486000000     3.894000000
O    -0.035000000     4.894000000     4.306000000
H     0.721000000     4.986000000     3.726000000
H    -0.586000000     4.238000000     3.880000000
O    -7.711000000     1.204000000     4.022000000
H    -7.308000000     0.372000000     4.270000000
H    -8.306000000     1.406000000     4.744000000
O     0.990000000     1.457000000     6.775000000
H     0.581000000     1.726000000     5.953000000
H     0.399000000     0.794000000     7.132000000
O    -0.960000000     0.145000000     8.017000000
H    -0.735000000     0.679000000     8.779000000
H    -1.082000000    -0.737000000     8.369000000
O    -4.126000000     5.913000000     4.721000000
H    -3.748000000     6.792000000     4.697000000
H    -3.589000000     5.405000000     4.113000000
O     2.517000000     6.634000000     5.908000000
H     2.233000000     6.851000000     5.020000000
H     1.746000000     6.240000000     6.316000000
O    -2.502000000     0.306000000     5.542000000
H    -2.012000000     0.185000000     6.355000000
H    -1.978000000     0.926000000     5.035000000
O    -6.100000000     5.372000000     6.366000000
H    -6.207000000     4.636000000     5.764000000
H    -5.474000000     5.950000000     5.929000000
O    -4.008000000     2.477000000     3.918000000
H    -3.149000000     2.583000000     3.509000000
H    -4.005000000     1.579000000     4.251000000
O    -2.053000000     3.627000000     6.231000000
H    -2.962000000     3.491000000     5.966000000
H    -1.537000000     3.199000000     5.548000000
O     2.094000000     7.955000000     3.176000000
H     1.453000000     8.583000000     2.841000000
H     2.688000000     7.803000000     2.441000000
O    -2.924000000     4.980000000     2.437000000
H    -3.777000000     4.589000000     2.626000000
H    -2.296000000     4.277000000     2.601000000
O    -4.664000000    -1.283000000     6.406000000
H    -5.275000000    -0.591000000     6.659000000
H    -3.854000000    -0.821000000     6.191000000
O    -0.759000000     3.800000000     8.674000000
H    -1.118000000     3.813000000     7.786000000
H     0.179000000     3.658000000     8.551000000
O    -6.804000000    -1.412000000     4.515000000
H    -6.017000000    -1.517000000     5.049000000
H    -6.474000000    -1.250000000     3.631000000
O     2.636000000     3.497000000     7.660000000
H     3.288000000     3.699000000     6.989000000
H     2.163000000     2.740000000     7.314000000
O    -6.380000000     3.430000000     4.246000000
H    -5.453000000     3.216000000     4.135000000
H    -6.842000000     2.634000000     3.983000000
O    -0.710000000     6.449000000     6.527000000
H    -0.532000000     5.956000000     5.726000000
H    -1.663000000     6.433000000     6.611000000
