215
-1449.86080
C    -4.548000000     1.056000000    -0.548000000
H    -4.534000000    -0.010000000    -0.337000000
C    -3.979000000     1.552000000    -1.696000000
C    -3.970000000     2.937000000    -1.870000000
H    -3.397000000     3.368000000    -2.687000000
C    -3.254000000     0.551000000    -2.655000000
O    -3.974000000    -0.686000000    -2.953000000
H    -2.395000000     0.286000000    -2.021000000
O    -2.920000000     1.134000000    -3.941000000
C    -1.627000000     1.018000000    -4.390000000
C    -0.813000000     2.061000000    -4.058000000
H    -1.149000000     2.960000000    -3.548000000
C     0.583000000     1.962000000    -4.343000000
O     1.390000000     2.948000000    -3.860000000
C     1.101000000     0.755000000    -4.883000000
C     2.599000000     0.724000000    -5.042000000
H     2.919000000    -0.047000000    -5.745000000
C     3.284000000     0.223000000    -3.721000000
C     3.512000000    -1.159000000    -3.488000000
H     2.967000000    -1.844000000    -4.134000000
H     3.010000000     1.704000000    -5.291000000
C     0.210000000    -0.320000000    -5.170000000
H     0.640000000    -1.266000000    -5.489000000
C    -1.141000000    -0.145000000    -4.939000000
C    -2.099000000    -1.311000000    -5.048000000
H    -1.647000000    -2.022000000    -5.742000000
H    -3.051000000    -0.991000000    -5.477000000
C    -2.273000000    -2.253000000    -3.786000000
C    -1.441000000    -3.394000000    -3.570000000
H    -0.639000000    -3.755000000    -4.209000000
C    -3.284000000    -1.888000000    -2.900000000
C    -3.389000000    -2.601000000    -1.722000000
H    -3.997000000    -2.264000000    -0.886000000
C    -2.547000000    -3.655000000    -1.412000000
O    -2.609000000    -4.144000000    -0.033000000
C    -1.565000000    -3.667000000     0.865000000
C    -2.118000000    -3.540000000     2.254000000
C    -1.239000000    -3.623000000     3.302000000
H    -0.204000000    -3.896000000     3.110000000
C    -3.435000000    -3.288000000     2.464000000
H    -4.167000000    -3.157000000     1.671000000
O    -0.537000000    -4.650000000     0.804000000
H    -1.262000000    -2.644000000     0.598000000
C    -1.522000000    -4.010000000    -2.339000000
C    -0.523000000    -5.069000000    -2.101000000
H    -0.072000000    -5.448000000    -3.020000000
H    -0.831000000    -5.895000000    -1.456000000
C     0.657000000    -4.568000000    -1.360000000
C     1.849000000    -4.186000000    -2.043000000
H     1.821000000    -4.162000000    -3.129000000
C     0.622000000    -4.434000000     0.050000000
C     1.811000000    -4.012000000     0.700000000
H     1.812000000    -3.998000000     1.787000000
C     2.952000000    -3.651000000    -0.018000000
O     3.978000000    -3.032000000     0.684000000
C     3.862000000    -1.616000000     0.816000000
C     4.187000000    -1.205000000     2.309000000
C     3.980000000    -2.079000000     3.333000000
H     3.524000000    -3.051000000     3.163000000
C     4.787000000     0.072000000     2.551000000
H     5.023000000     0.637000000     1.654000000
O     4.844000000    -0.982000000    -0.128000000
H     2.840000000    -1.341000000     0.518000000
C     3.009000000    -3.723000000    -1.407000000
C     4.163000000    -3.144000000    -2.241000000
H     3.992000000    -3.594000000    -3.221000000
H     5.147000000    -3.346000000    -1.812000000
C     4.059000000    -1.635000000    -2.323000000
C     4.329000000    -0.684000000    -1.351000000
C     4.287000000     0.721000000    -1.605000000
H     4.596000000     1.457000000    -0.868000000
C     3.769000000     1.147000000    -2.812000000
O     3.499000000     2.470000000    -2.946000000
C     2.115000000     2.755000000    -2.634000000
H     1.671000000     1.901000000    -2.101000000
C     1.922000000     3.913000000    -1.721000000
C     1.024000000     4.967000000    -2.176000000
H     0.714000000     5.025000000    -3.216000000
C     2.307000000     3.881000000    -0.424000000
H     2.887000000     3.066000000     0.002000000
C     1.936000000     4.911000000     0.510000000
O     2.221000000     4.692000000     1.822000000
C     1.072000000     5.919000000     0.094000000
H     0.745000000     6.707000000     0.767000000
C     0.555000000     5.924000000    -1.240000000
O    -0.293000000     6.938000000    -1.553000000
C    -1.533000000     6.737000000    -2.106000000
C    -2.461000000     6.071000000    -1.386000000
H    -2.214000000     5.869000000    -0.347000000
C    -1.849000000     7.075000000    -3.432000000
H    -1.047000000     7.496000000    -4.033000000
C    -3.019000000     6.744000000    -3.987000000
H    -3.230000000     6.891000000    -5.043000000
C    -4.036000000     6.123000000    -3.213000000
H    -4.966000000     5.725000000    -3.609000000
C    -3.749000000     5.802000000    -1.856000000
O    -4.685000000     5.083000000    -1.171000000
C    -4.569000000     3.805000000    -0.946000000
C    -5.230000000     3.252000000     0.204000000
H    -5.684000000     3.963000000     0.888000000
C    -5.141000000     1.888000000     0.421000000
O    -5.597000000     1.549000000     1.668000000
C    -6.050000000     0.294000000     1.983000000
C    -5.291000000    -0.537000000     2.791000000
H    -4.344000000    -0.146000000     3.154000000
C    -7.286000000    -0.203000000     1.465000000
H    -7.869000000     0.553000000     0.946000000
C    -7.700000000    -1.481000000     1.757000000
H    -8.667000000    -1.820000000     1.393000000
C    -6.995000000    -2.296000000     2.618000000
H    -7.234000000    -3.316000000     2.906000000
C    -5.782000000    -1.799000000     3.110000000
O    -5.144000000    -2.650000000     3.979000000
C    -3.918000000    -3.157000000     3.765000000
C    -3.084000000    -3.224000000     4.865000000
H    -3.466000000    -3.186000000     5.882000000
C    -1.709000000    -3.446000000     4.614000000
O    -0.907000000    -3.545000000     5.777000000
C     0.402000000    -3.935000000     5.813000000
C     1.470000000    -3.048000000     5.657000000
H     1.210000000    -2.002000000     5.513000000
C     0.765000000    -5.277000000     5.938000000
H     0.008000000    -6.057000000     5.928000000
C     2.173000000    -5.668000000     6.100000000
H     2.496000000    -6.685000000     6.309000000
C     3.140000000    -4.680000000     6.092000000
H     4.184000000    -4.974000000     6.164000000
C     2.798000000    -3.389000000     5.848000000
O     3.832000000    -2.398000000     5.759000000
C     4.064000000    -1.590000000     4.672000000
C     4.551000000    -0.264000000     4.932000000
H     4.597000000     0.109000000     5.952000000
C     4.925000000     0.544000000     3.873000000
O     5.379000000     1.850000000     4.116000000
C     5.039000000     2.891000000     3.311000000
C     6.085000000     3.799000000     3.042000000
H     7.099000000     3.679000000     3.413000000
C     5.920000000     4.820000000     2.143000000
H     6.796000000     5.406000000     1.876000000
C     4.608000000     5.082000000     1.728000000
H     4.475000000     5.933000000     1.065000000
C     3.499000000     4.403000000     2.264000000
C     3.723000000     3.295000000     3.019000000
H     2.866000000     2.762000000     3.423000000
C    -0.664000000     2.222000000     0.791000000
H    -0.956000000     3.224000000     0.488000000
C    -0.610000000     1.233000000    -0.148000000
H    -0.931000000     1.515000000    -1.148000000
C    -0.022000000    -0.025000000     0.063000000
H    -0.095000000    -0.782000000    -0.743000000
C     0.327000000    -0.334000000     1.349000000
H     0.643000000    -1.315000000     1.693000000
C     0.265000000     0.596000000     2.368000000
H     0.710000000     0.419000000     3.344000000
C    -0.178000000     1.942000000     2.073000000
C    -0.268000000     3.069000000     3.048000000
O     0.253000000     2.959000000     4.190000000
O    -0.839000000     4.123000000     2.762000000
O    -0.503000000     6.857000000     3.339000000
H     0.403000000     6.828000000     3.648000000
H    -0.759000000     5.938000000     3.261000000
O     1.643000000     5.610000000     4.402000000
H     1.679000000     4.960000000     3.699000000
H     1.008000000     5.254000000     5.024000000
O    -4.824000000     7.163000000     1.205000000
H    -4.702000000     7.456000000     2.108000000
H    -4.356000000     6.329000000     1.159000000
O     1.033000000     1.204000000     6.350000000
H     1.016000000     1.560000000     5.461000000
H     0.113000000     1.048000000     6.562000000
O    -3.584000000     6.296000000     5.782000000
H    -3.577000000     6.879000000     5.024000000
H    -3.854000000     5.448000000     5.430000000
O     4.395000000     5.765000000     7.297000000
H     3.616000000     5.406000000     7.722000000
H     4.130000000     5.901000000     6.387000000
O     2.768000000     7.894000000     5.764000000
H     3.222000000     8.175000000     4.969000000
H     2.551000000     6.975000000     5.603000000
O    -0.870000000     8.922000000     1.341000000
H    -0.995000000     8.098000000     1.812000000
H     0.077000000     9.063000000     1.351000000
O    -2.890000000     0.176000000     6.280000000
H    -2.714000000    -0.727000000     6.015000000
H    -2.909000000     0.667000000     5.458000000
O     3.410000000     1.097000000     7.828000000
H     2.941000000     1.233000000     8.651000000
H     2.733000000     1.150000000     7.154000000
O    -1.610000000     1.209000000     8.608000000
H    -1.929000000     0.522000000     9.194000000
H    -2.028000000     1.020000000     7.768000000
O    -4.489000000     2.666000000     7.545000000
H    -5.207000000     3.073000000     7.060000000
H    -4.124000000     2.023000000     6.937000000
O    -2.685000000     2.318000000     4.624000000
H    -3.352000000     2.949000000     4.352000000
H    -1.877000000     2.829000000     4.672000000
O    -0.222000000     4.827000000     6.291000000
H    -0.825000000     4.649000000     7.014000000
H    -0.286000000     4.053000000     5.731000000
O    -3.106000000     5.172000000     2.134000000
H    -3.599000000     4.426000000     2.476000000
H    -2.188000000     4.933000000     2.264000000
O    -1.156000000     4.081000000     8.690000000
H    -1.359000000     3.156000000     8.552000000
H    -1.640000000     4.318000000     9.481000000
O     2.059000000     4.579000000     8.151000000
H     2.371000000     3.895000000     8.744000000
H     1.153000000     4.337000000     7.962000000
O    -4.843000000     4.107000000     4.274000000
H    -5.417000000     3.786000000     4.970000000
H    -5.441000000     4.389000000     3.582000000
O    -1.384000000     7.300000000     7.153000000
H    -0.819000000     6.631000000     6.766000000
H    -2.245000000     7.138000000     6.768000000
