215
-1474.98246
C    -5.158000000     1.435000000    -0.913000000
H    -5.119000000     0.367000000    -0.714000000
C    -4.441000000     1.921000000    -1.970000000
C    -4.280000000     3.294000000    -2.075000000
H    -3.655000000     3.722000000    -2.854000000
C    -3.472000000     1.019000000    -2.693000000
O    -3.958000000    -0.312000000    -2.881000000
H    -2.611000000     0.922000000    -2.015000000
O    -3.026000000     1.531000000    -3.939000000
C    -1.718000000     1.297000000    -4.303000000
C    -0.763000000     2.323000000    -4.083000000
H    -1.098000000     3.284000000    -3.702000000
C     0.619000000     2.082000000    -4.300000000
O     1.456000000     3.085000000    -3.874000000
C     1.025000000     0.876000000    -4.860000000
C     2.545000000     0.574000000    -5.109000000
H     2.672000000    -0.134000000    -5.930000000
C     3.267000000     0.080000000    -3.844000000
C     3.421000000    -1.286000000    -3.617000000
H     3.033000000    -2.019000000    -4.320000000
H     2.982000000     1.511000000    -5.461000000
C     0.093000000    -0.101000000    -5.146000000
H     0.465000000    -1.019000000    -5.594000000
C    -1.269000000     0.092000000    -4.858000000
C    -2.203000000    -1.143000000    -4.986000000
H    -1.873000000    -1.913000000    -5.687000000
H    -3.229000000    -0.850000000    -5.217000000
C    -2.289000000    -1.854000000    -3.673000000
C    -1.530000000    -3.022000000    -3.462000000
H    -0.887000000    -3.340000000    -4.279000000
C    -3.105000000    -1.383000000    -2.669000000
C    -3.302000000    -2.051000000    -1.527000000
H    -4.069000000    -1.756000000    -0.815000000
C    -2.523000000    -3.091000000    -1.226000000
O    -2.720000000    -3.742000000    -0.061000000
C    -1.683000000    -3.554000000     0.907000000
C    -2.287000000    -3.343000000     2.270000000
C    -1.552000000    -3.781000000     3.392000000
H    -0.597000000    -4.292000000     3.305000000
C    -3.545000000    -2.743000000     2.417000000
H    -4.036000000    -2.329000000     1.540000000
O    -0.759000000    -4.705000000     0.946000000
H    -1.111000000    -2.628000000     0.747000000
C    -1.656000000    -3.650000000    -2.199000000
C    -0.855000000    -4.902000000    -1.967000000
H    -0.635000000    -5.371000000    -2.928000000
H    -1.491000000    -5.607000000    -1.429000000
C     0.433000000    -4.660000000    -1.209000000
C     1.591000000    -4.382000000    -1.910000000
H     1.535000000    -4.372000000    -2.995000000
C     0.405000000    -4.602000000     0.218000000
C     1.552000000    -4.237000000     0.871000000
H     1.617000000    -4.181000000     1.955000000
C     2.686000000    -3.852000000     0.162000000
O     3.700000000    -3.179000000     0.883000000
C     3.509000000    -1.769000000     0.877000000
C     3.738000000    -1.284000000     2.292000000
C     3.134000000    -1.864000000     3.429000000
H     2.566000000    -2.785000000     3.320000000
C     4.498000000    -0.150000000     2.501000000
H     5.067000000     0.316000000     1.701000000
O     4.417000000    -1.187000000    -0.015000000
H     2.473000000    -1.481000000     0.646000000
C     2.689000000    -3.889000000    -1.255000000
C     3.854000000    -3.319000000    -2.087000000
H     4.059000000    -3.874000000    -3.004000000
H     4.735000000    -3.548000000    -1.484000000
C     3.787000000    -1.800000000    -2.349000000
C     4.127000000    -0.871000000    -1.371000000
C     3.965000000     0.485000000    -1.595000000
H     4.178000000     1.186000000    -0.792000000
C     3.732000000     0.982000000    -2.869000000
O     3.510000000     2.356000000    -2.935000000
C     2.213000000     2.701000000    -2.626000000
H     1.699000000     1.832000000    -2.190000000
C     2.205000000     3.763000000    -1.511000000
C     1.035000000     4.439000000    -1.260000000
H     0.177000000     4.201000000    -1.884000000
C     3.299000000     3.896000000    -0.663000000
H     4.179000000     3.279000000    -0.826000000
C     3.205000000     4.778000000     0.446000000
O     4.200000000     4.982000000     1.364000000
C     2.011000000     5.589000000     0.580000000
H     1.967000000     6.307000000     1.395000000
C     0.945000000     5.381000000    -0.205000000
O    -0.291000000     6.008000000     0.035000000
C    -1.276000000     6.173000000    -0.944000000
C    -2.528000000     5.629000000    -0.779000000
H    -2.704000000     4.955000000     0.056000000
C    -0.983000000     7.093000000    -1.951000000
H     0.021000000     7.504000000    -2.019000000
C    -2.019000000     7.489000000    -2.799000000
H    -1.861000000     8.160000000    -3.640000000
C    -3.262000000     6.902000000    -2.623000000
H    -4.058000000     7.227000000    -3.288000000
C    -3.516000000     6.024000000    -1.641000000
O    -4.834000000     5.615000000    -1.407000000
C    -5.064000000     4.190000000    -1.311000000
C    -5.972000000     3.710000000    -0.379000000
H    -6.482000000     4.392000000     0.296000000
C    -5.913000000     2.316000000    -0.082000000
O    -6.622000000     1.788000000     1.011000000
C    -6.643000000     0.462000000     1.453000000
C    -5.835000000     0.076000000     2.516000000
H    -5.153000000     0.738000000     3.043000000
C    -7.482000000    -0.419000000     0.857000000
H    -8.189000000    -0.041000000     0.123000000
C    -7.555000000    -1.717000000     1.272000000
H    -8.352000000    -2.347000000     0.886000000
C    -6.725000000    -2.135000000     2.267000000
H    -6.833000000    -3.176000000     2.560000000
C    -5.867000000    -1.224000000     2.902000000
O    -5.163000000    -1.734000000     3.908000000
C    -4.040000000    -2.509000000     3.718000000
C    -3.353000000    -3.118000000     4.844000000
H    -3.749000000    -2.992000000     5.848000000
C    -2.094000000    -3.643000000     4.708000000
O    -1.451000000    -4.185000000     5.820000000
C    -0.086000000    -4.280000000     5.808000000
C     0.682000000    -3.094000000     5.905000000
H     0.174000000    -2.154000000     6.109000000
C     0.539000000    -5.484000000     5.495000000
H    -0.080000000    -6.364000000     5.345000000
C     1.921000000    -5.602000000     5.404000000
H     2.343000000    -6.562000000     5.118000000
C     2.727000000    -4.467000000     5.620000000
H     3.809000000    -4.572000000     5.651000000
C     2.090000000    -3.237000000     5.876000000
O     2.836000000    -2.026000000     5.875000000
C     3.395000000    -1.399000000     4.750000000
C     4.315000000    -0.386000000     4.831000000
H     4.638000000     0.015000000     5.788000000
C     4.847000000     0.298000000     3.774000000
O     5.824000000     1.308000000     4.030000000
C     5.981000000     2.203000000     3.020000000
C     7.207000000     2.274000000     2.357000000
H     8.059000000     1.634000000     2.570000000
C     7.421000000     3.281000000     1.391000000
H     8.342000000     3.298000000     0.814000000
C     6.391000000     4.173000000     1.121000000
H     6.497000000     4.840000000     0.269000000
C     5.208000000     4.127000000     1.760000000
C     4.984000000     3.083000000     2.750000000
H     4.075000000     3.174000000     3.338000000
C    -0.936000000     2.809000000     1.117000000
H    -1.670000000     3.553000000     1.416000000
C    -1.076000000     2.061000000    -0.020000000
H    -1.977000000     2.134000000    -0.623000000
C    -0.013000000     1.197000000    -0.415000000
H    -0.052000000     0.589000000    -1.316000000
C     1.128000000     1.063000000     0.438000000
H     1.882000000     0.424000000    -0.016000000
C     1.203000000     1.772000000     1.644000000
H     2.163000000     1.724000000     2.152000000
C     0.214000000     2.712000000     1.948000000
C     0.377000000     3.595000000     3.086000000
O     1.503000000     3.701000000     3.614000000
O    -0.568000000     4.320000000     3.488000000
O    -0.941000000     7.977000000     2.539000000
H    -0.448000000     7.833000000     3.347000000
H    -0.963000000     7.119000000     2.116000000
O     3.197000000     5.645000000     3.742000000
H     3.626000000     5.755000000     2.894000000
H     2.570000000     4.935000000     3.603000000
O    -3.736000000     7.786000000     1.250000000
H    -3.801000000     8.320000000     2.041000000
H    -3.365000000     6.956000000     1.550000000
O     0.671000000     0.330000000     7.609000000
H    -0.262000000     0.154000000     7.493000000
H     0.997000000     0.486000000     6.723000000
O     1.693000000     1.744000000     5.271000000
H     1.694000000     2.594000000     4.832000000
H     2.455000000     1.289000000     4.913000000
O    -3.904000000     6.957000000     5.357000000
H    -4.156000000     7.741000000     4.869000000
H    -3.717000000     6.304000000     4.682000000
O     4.518000000     4.586000000     5.782000000
H     3.827000000     4.036000000     6.152000000
H     4.083000000     5.083000000     5.090000000
O     3.212000000     8.100000000     5.910000000
H     3.447000000     9.022000000     6.010000000
H     3.348000000     7.918000000     4.980000000
O    -0.553000000    -0.172000000     4.542000000
H    -0.135000000     0.668000000     4.351000000
H    -1.383000000     0.062000000     4.957000000
O     2.501000000     2.868000000     7.593000000
H     2.012000000     2.741000000     8.406000000
H     2.090000000     2.269000000     6.970000000
O    -4.590000000     2.344000000     5.710000000
H    -5.131000000     2.674000000     6.427000000
H    -3.890000000     2.990000000     5.620000000
O    -2.261000000     3.951000000     5.679000000
H    -1.711000000     4.009000000     4.898000000
H    -1.688000000     3.575000000     6.348000000
O     0.350000000     6.495000000     4.668000000
H     1.191000000     6.164000000     4.986000000
H    -0.148000000     5.709000000     4.445000000
O    -2.607000000     5.636000000     2.590000000
H    -3.388000000     5.293000000     3.023000000
H    -1.901000000     5.055000000     2.874000000
O    -2.908000000     0.201000000     5.504000000
H    -3.317000000     1.023000000     5.773000000
H    -3.574000000    -0.234000000     4.971000000
O    -0.580000000     2.740000000     7.901000000
H     0.093000000     2.108000000     7.647000000
H    -0.984000000     2.359000000     8.681000000
O     0.915000000     5.412000000     7.812000000
H     1.669000000     4.822000000     7.835000000
H     0.173000000     4.844000000     7.603000000
O    -5.085000000     4.493000000     3.368000000
H    -5.028000000     3.737000000     3.952000000
H    -5.992000000     4.787000000     3.445000000
O    -1.480000000     7.706000000     6.306000000
H    -0.901000000     7.060000000     5.901000000
H    -2.350000000     7.493000000     5.968000000
