215
-1475.54010
C    -5.400000000     0.621000000    -1.177000000
H    -5.672000000    -0.413000000    -1.377000000
C    -4.283000000     1.156000000    -1.839000000
C    -3.917000000     2.488000000    -1.547000000
H    -3.122000000     2.975000000    -2.105000000
C    -3.429000000     0.316000000    -2.674000000
O    -3.981000000    -0.937000000    -3.061000000
H    -2.520000000     0.162000000    -2.074000000
O    -3.032000000     1.025000000    -3.852000000
C    -1.724000000     0.974000000    -4.184000000
C    -0.931000000     2.062000000    -3.863000000
H    -1.414000000     2.898000000    -3.363000000
C     0.417000000     2.110000000    -4.118000000
O     1.178000000     3.156000000    -3.677000000
C     1.035000000     1.041000000    -4.765000000
C     2.554000000     0.926000000    -4.933000000
H     2.887000000     0.266000000    -5.737000000
C     3.163000000     0.433000000    -3.618000000
C     3.443000000    -0.948000000    -3.468000000
H     3.172000000    -1.596000000    -4.297000000
H     2.993000000     1.883000000    -5.224000000
C     0.281000000    -0.116000000    -4.972000000
H     0.838000000    -0.952000000    -5.387000000
C    -1.099000000    -0.140000000    -4.752000000
C    -1.778000000    -1.487000000    -5.061000000
H    -1.143000000    -2.113000000    -5.692000000
H    -2.684000000    -1.326000000    -5.649000000
C    -2.073000000    -2.312000000    -3.833000000
C    -1.248000000    -3.405000000    -3.561000000
H    -0.474000000    -3.518000000    -4.315000000
C    -3.128000000    -2.099000000    -2.943000000
C    -3.265000000    -2.836000000    -1.765000000
H    -4.143000000    -2.718000000    -1.136000000
C    -2.380000000    -3.889000000    -1.511000000
O    -2.446000000    -4.491000000    -0.308000000
C    -1.496000000    -4.027000000     0.742000000
C    -2.091000000    -3.707000000     2.081000000
C    -1.356000000    -3.888000000     3.224000000
H    -0.361000000    -4.308000000     3.105000000
C    -3.338000000    -3.121000000     2.188000000
H    -3.877000000    -3.000000000     1.252000000
O    -0.390000000    -4.953000000     0.814000000
H    -1.049000000    -3.074000000     0.424000000
C    -1.331000000    -4.191000000    -2.377000000
C    -0.360000000    -5.337000000    -2.042000000
H     0.015000000    -5.711000000    -2.998000000
H    -0.860000000    -6.153000000    -1.516000000
C     0.848000000    -4.741000000    -1.263000000
C     1.981000000    -4.205000000    -1.946000000
H     1.994000000    -4.237000000    -3.032000000
C     0.732000000    -4.608000000     0.089000000
C     1.765000000    -4.130000000     0.850000000
H     1.616000000    -3.955000000     1.913000000
C     2.880000000    -3.683000000     0.234000000
O     3.787000000    -2.947000000     1.033000000
C     3.869000000    -1.491000000     0.987000000
C     4.139000000    -0.872000000     2.343000000
C     3.539000000    -1.433000000     3.446000000
H     2.936000000    -2.330000000     3.339000000
C     4.875000000     0.278000000     2.467000000
H     5.299000000     0.753000000     1.586000000
O     4.778000000    -1.050000000    -0.016000000
H     2.917000000    -1.051000000     0.657000000
C     3.005000000    -3.694000000    -1.147000000
C     4.167000000    -2.988000000    -1.883000000
H     4.313000000    -3.471000000    -2.851000000
H     5.131000000    -3.181000000    -1.409000000
C     3.918000000    -1.483000000    -2.223000000
C     4.266000000    -0.570000000    -1.222000000
C     4.063000000     0.798000000    -1.384000000
H     4.366000000     1.574000000    -0.686000000
C     3.478000000     1.262000000    -2.571000000
O     3.259000000     2.583000000    -2.613000000
C     1.879000000     2.986000000    -2.392000000
H     1.300000000     2.286000000    -1.772000000
C     1.930000000     4.269000000    -1.555000000
C     0.952000000     5.222000000    -1.771000000
H     0.402000000     5.255000000    -2.709000000
C     2.614000000     4.281000000    -0.315000000
H     3.286000000     3.450000000    -0.116000000
C     2.575000000     5.417000000     0.529000000
O     3.311000000     5.470000000     1.708000000
C     1.491000000     6.321000000     0.311000000
H     1.442000000     7.163000000     0.996000000
C     0.665000000     6.231000000    -0.803000000
O    -0.345000000     7.132000000    -0.956000000
C    -1.577000000     6.654000000    -1.358000000
C    -2.276000000     5.785000000    -0.526000000
H    -1.884000000     5.497000000     0.446000000
C    -2.168000000     7.244000000    -2.476000000
H    -1.669000000     8.059000000    -2.993000000
C    -3.456000000     6.908000000    -2.781000000
H    -3.975000000     7.297000000    -3.654000000
C    -4.105000000     5.913000000    -1.990000000
H    -5.033000000     5.553000000    -2.426000000
C    -3.487000000     5.336000000    -0.932000000
O    -4.240000000     4.435000000    -0.163000000
C    -4.616000000     3.138000000    -0.523000000
C    -5.644000000     2.611000000     0.177000000
H    -6.165000000     3.261000000     0.875000000
C    -6.125000000     1.320000000    -0.201000000
O    -7.144000000     0.691000000     0.528000000
C    -7.017000000    -0.573000000     1.002000000
C    -6.159000000    -0.831000000     2.053000000
H    -5.653000000     0.028000000     2.488000000
C    -7.686000000    -1.632000000     0.413000000
H    -8.441000000    -1.443000000    -0.345000000
C    -7.548000000    -2.921000000     0.938000000
H    -8.139000000    -3.785000000     0.644000000
C    -6.664000000    -3.185000000     1.982000000
H    -6.538000000    -4.169000000     2.427000000
C    -6.025000000    -2.162000000     2.581000000
O    -5.150000000    -2.395000000     3.606000000
C    -3.879000000    -2.730000000     3.391000000
C    -3.161000000    -2.915000000     4.504000000
H    -3.590000000    -2.586000000     5.447000000
C    -1.854000000    -3.492000000     4.431000000
O    -1.164000000    -3.618000000     5.648000000
C     0.220000000    -3.652000000     5.784000000
C     0.946000000    -2.444000000     5.764000000
H     0.395000000    -1.516000000     5.637000000
C     0.799000000    -4.835000000     6.101000000
H     0.208000000    -5.746000000     6.149000000
C     2.175000000    -4.924000000     6.266000000
H     2.596000000    -5.922000000     6.357000000
C     2.976000000    -3.755000000     6.059000000
H     4.059000000    -3.847000000     6.052000000
C     2.355000000    -2.532000000     5.827000000
O     3.082000000    -1.381000000     5.846000000
C     3.736000000    -0.891000000     4.747000000
C     4.481000000     0.288000000     4.849000000
H     4.598000000     0.682000000     5.855000000
C     5.069000000     0.879000000     3.707000000
O     5.874000000     2.033000000     3.872000000
C     5.817000000     3.076000000     2.963000000
C     6.914000000     3.414000000     2.225000000
H     7.816000000     2.841000000     2.421000000
C     6.851000000     4.532000000     1.350000000
H     7.620000000     4.848000000     0.650000000
C     5.678000000     5.227000000     1.185000000
H     5.524000000     5.981000000     0.418000000
C     4.517000000     4.805000000     1.806000000
C     4.621000000     3.735000000     2.755000000
H     3.735000000     3.423000000     3.301000000
C    -2.374000000     0.577000000     1.500000000
H    -3.263000000     0.462000000     2.115000000
C    -2.050000000    -0.432000000     0.598000000
H    -2.688000000    -1.307000000     0.508000000
C    -0.899000000    -0.323000000    -0.216000000
H    -0.586000000    -1.120000000    -0.900000000
C    -0.084000000     0.767000000    -0.081000000
H     0.861000000     0.816000000    -0.614000000
C    -0.424000000     1.813000000     0.817000000
H     0.246000000     2.663000000     0.918000000
C    -1.595000000     1.687000000     1.563000000
C    -1.942000000     2.760000000     2.580000000
O    -1.422000000     3.842000000     2.441000000
O    -2.718000000     2.529000000     3.511000000
O    -1.612000000     6.684000000     2.683000000
H    -0.933000000     6.693000000     3.358000000
H    -1.584000000     5.796000000     2.327000000
O     1.247000000     3.354000000     3.636000000
H     0.549000000     3.416000000     2.985000000
H     1.047000000     2.557000000     4.127000000
O     1.757000000     1.915000000     8.437000000
H     0.810000000     1.833000000     8.324000000
H     2.101000000     1.055000000     8.193000000
O     0.728000000     4.436000000     7.041000000
H     0.474000000     4.281000000     7.950000000
H     0.711000000     3.569000000     6.636000000
O     2.380000000     5.828000000     4.343000000
H     1.700000000     5.168000000     4.481000000
H     2.609000000     5.746000000     3.417000000
O    -7.861000000     1.423000000     5.750000000
H    -6.944000000     1.474000000     5.480000000
H    -7.829000000     1.425000000     6.707000000
O     0.127000000     0.821000000     4.137000000
H     0.128000000     0.674000000     3.191000000
H    -0.678000000     0.403000000     4.443000000
O    -5.100000000     2.009000000     4.805000000
H    -4.251000000     2.068000000     4.368000000
H    -5.653000000     2.637000000     4.340000000
O    -2.894000000     4.903000000     5.221000000
H    -3.715000000     4.412000000     5.184000000
H    -2.368000000     4.546000000     4.505000000
O    -2.698000000     8.780000000     1.547000000
H    -2.174000000     8.119000000     2.001000000
H    -2.236000000     8.927000000     0.722000000
O    -4.305000000     5.119000000     2.562000000
H    -3.860000000     5.962000000     2.467000000
H    -3.737000000     4.497000000     2.108000000
O    -4.926000000    -0.425000000     6.410000000
H    -4.947000000     0.453000000     6.028000000
H    -5.735000000    -0.837000000     6.107000000
O    -2.281000000     0.502000000     5.265000000
H    -2.596000000     1.214000000     4.708000000
H    -3.024000000     0.295000000     5.832000000
O    -6.638000000     4.310000000     6.906000000
H    -6.470000000     3.891000000     6.062000000
H    -7.338000000     4.938000000     6.727000000
O    -2.514000000     4.101000000     7.823000000
H    -2.565000000     4.392000000     6.913000000
H    -1.873000000     3.390000000     7.811000000
O    -1.037000000     1.939000000     7.569000000
H    -1.169000000     1.642000000     6.669000000
H    -1.348000000     1.213000000     8.110000000
O    -0.005000000     7.086000000     6.890000000
H    -0.716000000     7.184000000     7.524000000
H     0.177000000     6.147000000     6.877000000
O    -6.544000000     4.303000000     4.116000000
H    -5.928000000     4.938000000     3.751000000
H    -7.236000000     4.234000000     3.458000000
O    -3.703000000     7.913000000     4.641000000
H    -3.730000000     7.039000000     5.029000000
H    -4.470000000     7.946000000     4.069000000
