215
-1459.32655
C    -2.653000000    -0.357000000    -4.287000000
H    -3.114000000    -1.336000000    -4.186000000
C    -1.204000000    -0.210000000    -4.209000000
C    -0.656000000     1.102000000    -4.148000000
H     0.381000000     1.283000000    -3.877000000
C    -0.264000000    -1.335000000    -3.729000000
O    -0.893000000    -2.607000000    -3.889000000
H    -0.115000000    -1.178000000    -2.651000000
O     1.009000000    -1.244000000    -4.328000000
C     2.134000000    -1.589000000    -3.620000000
C     2.998000000    -0.565000000    -3.300000000
H     2.823000000     0.446000000    -3.658000000
C     4.089000000    -0.765000000    -2.522000000
O     4.776000000     0.378000000    -2.167000000
C     4.291000000    -1.974000000    -1.853000000
C     5.333000000    -2.101000000    -0.806000000
H     5.703000000    -3.126000000    -0.729000000
C     4.755000000    -1.629000000     0.554000000
C     4.238000000    -2.571000000     1.385000000
H     4.244000000    -3.565000000     0.944000000
H     6.254000000    -1.587000000    -1.090000000
C     3.440000000    -3.027000000    -2.208000000
H     3.527000000    -3.995000000    -1.720000000
C     2.392000000    -2.850000000    -3.114000000
C     1.467000000    -4.069000000    -3.483000000
H     2.023000000    -5.009000000    -3.446000000
H     1.029000000    -3.999000000    -4.480000000
C     0.303000000    -4.211000000    -2.573000000
C     0.302000000    -4.954000000    -1.375000000
H     1.251000000    -5.384000000    -1.064000000
C    -0.870000000    -3.477000000    -2.865000000
C    -2.045000000    -3.583000000    -2.088000000
H    -2.969000000    -3.067000000    -2.333000000
C    -1.944000000    -4.154000000    -0.822000000
O    -2.978000000    -3.969000000     0.029000000
C    -2.828000000    -2.873000000     0.903000000
C    -4.060000000    -2.024000000     0.890000000
C    -4.307000000    -1.039000000     1.907000000
H    -3.491000000    -0.874000000     2.605000000
C    -5.019000000    -2.002000000    -0.106000000
H    -4.881000000    -2.632000000    -0.981000000
O    -2.605000000    -3.416000000     2.242000000
H    -1.995000000    -2.213000000     0.619000000
C    -0.778000000    -4.796000000    -0.438000000
C    -0.706000000    -5.445000000     0.942000000
H    -0.015000000    -6.290000000     0.915000000
H    -1.632000000    -5.965000000     1.191000000
C    -0.461000000    -4.496000000     2.127000000
C     0.889000000    -4.368000000     2.431000000
H     1.588000000    -5.051000000     1.955000000
C    -1.341000000    -3.543000000     2.671000000
C    -0.919000000    -2.561000000     3.537000000
H    -1.550000000    -1.722000000     3.816000000
C     0.471000000    -2.425000000     3.803000000
O     0.852000000    -1.418000000     4.670000000
C     1.502000000    -0.257000000     3.992000000
C     0.853000000     0.998000000     4.563000000
C    -0.466000000     0.995000000     5.119000000
H    -1.029000000     0.066000000     5.087000000
C     1.451000000     2.221000000     4.411000000
H     2.446000000     2.273000000     3.976000000
O     2.938000000    -0.343000000     4.007000000
H     1.196000000    -0.401000000     2.945000000
C     1.377000000    -3.326000000     3.227000000
C     2.871000000    -3.166000000     3.508000000
H     3.230000000    -4.191000000     3.388000000
H     3.050000000    -2.889000000     4.549000000
C     3.549000000    -2.154000000     2.566000000
C     3.568000000    -0.812000000     2.947000000
C     4.195000000     0.085000000     2.175000000
H     4.191000000     1.110000000     2.537000000
C     4.728000000    -0.320000000     0.993000000
O     5.251000000     0.628000000     0.162000000
C     4.374000000     0.977000000    -0.962000000
H     3.360000000     0.600000000    -0.765000000
C     4.119000000     2.477000000    -1.061000000
C     3.904000000     2.922000000    -2.350000000
H     3.918000000     2.299000000    -3.241000000
C     4.133000000     3.338000000     0.049000000
H     4.288000000     2.991000000     1.068000000
C     3.946000000     4.689000000    -0.213000000
O     4.032000000     5.592000000     0.849000000
C     3.758000000     5.183000000    -1.510000000
H     3.574000000     6.228000000    -1.746000000
C     3.663000000     4.284000000    -2.579000000
O     3.490000000     4.782000000    -3.860000000
C     2.485000000     4.468000000    -4.711000000
C     1.268000000     4.036000000    -4.263000000
H     1.096000000     3.870000000    -3.203000000
C     2.677000000     4.533000000    -6.086000000
H     3.642000000     4.753000000    -6.536000000
C     1.665000000     4.174000000    -6.977000000
H     1.821000000     4.112000000    -8.051000000
C     0.441000000     3.793000000    -6.480000000
H    -0.260000000     3.442000000    -7.233000000
C     0.232000000     3.651000000    -5.132000000
O    -1.044000000     3.458000000    -4.693000000
C    -1.494000000     2.171000000    -4.486000000
C    -2.811000000     2.007000000    -4.837000000
H    -3.346000000     2.768000000    -5.399000000
C    -3.432000000     0.751000000    -4.629000000
O    -4.728000000     0.582000000    -4.987000000
C    -5.558000000    -0.380000000    -4.363000000
C    -5.913000000    -0.301000000    -3.011000000
H    -5.505000000     0.561000000    -2.488000000
C    -5.984000000    -1.538000000    -5.115000000
H    -5.695000000    -1.661000000    -6.156000000
C    -6.792000000    -2.543000000    -4.524000000
H    -7.213000000    -3.327000000    -5.148000000
C    -7.133000000    -2.352000000    -3.165000000
H    -7.852000000    -3.008000000    -2.680000000
C    -6.698000000    -1.275000000    -2.429000000
O    -7.061000000    -1.168000000    -1.076000000
C    -6.104000000    -1.135000000    -0.087000000
C    -6.324000000    -0.181000000     0.888000000
H    -7.167000000     0.505000000     0.878000000
C    -5.421000000    -0.201000000     1.929000000
O    -5.606000000     0.727000000     2.935000000
C    -5.059000000     0.640000000     4.209000000
C    -3.775000000     1.186000000     4.462000000
H    -3.257000000     1.771000000     3.706000000
C    -5.736000000    -0.057000000     5.173000000
H    -6.711000000    -0.479000000     4.943000000
C    -5.274000000    -0.106000000     6.515000000
H    -5.833000000    -0.529000000     7.346000000
C    -4.111000000     0.617000000     6.847000000
H    -3.721000000     0.531000000     7.858000000
C    -3.384000000     1.195000000     5.763000000
O    -2.404000000     2.040000000     6.062000000
C    -1.144000000     2.105000000     5.501000000
C    -0.463000000     3.359000000     5.427000000
H    -1.002000000     4.223000000     5.807000000
C     0.848000000     3.417000000     4.881000000
O     1.479000000     4.602000000     4.808000000
C     2.713000000     4.758000000     4.112000000
C     3.928000000     4.531000000     4.797000000
H     3.876000000     4.044000000     5.767000000
C     5.168000000     4.727000000     4.202000000
H     6.089000000     4.648000000     4.774000000
C     5.159000000     5.135000000     2.904000000
H     6.131000000     5.303000000     2.448000000
C     3.988000000     5.272000000     2.169000000
C     2.752000000     5.081000000     2.778000000
H     1.799000000     5.255000000     2.285000000
C    -1.468000000     1.470000000     1.061000000
H    -2.120000000     1.633000000     1.915000000
C    -0.624000000     0.314000000     1.014000000
H    -0.689000000    -0.468000000     1.766000000
C     0.372000000     0.079000000     0.002000000
H     0.946000000    -0.811000000    -0.052000000
C     0.537000000     1.096000000    -0.935000000
H     1.226000000     0.893000000    -1.752000000
C    -0.349000000     2.200000000    -0.873000000
H    -0.401000000     2.908000000    -1.695000000
C    -1.266000000     2.457000000     0.088000000
C    -2.115000000     3.696000000     0.140000000
O    -2.117000000     4.442000000    -0.854000000
O    -2.911000000     3.892000000     1.036000000
O    -5.756000000     4.476000000     5.651000000
H    -5.234000000     4.478000000     4.849000000
H    -5.151000000     4.770000000     6.331000000
O    -6.183000000     3.993000000    -2.548000000
H    -5.951000000     3.880000000    -1.626000000
H    -5.735000000     4.797000000    -2.810000000
O    -7.621000000     4.639000000     1.682000000
H    -8.213000000     5.205000000     2.178000000
H    -7.908000000     3.750000000     1.892000000
O    -2.099000000     9.373000000     3.832000000
H    -1.727000000     8.915000000     3.078000000
H    -1.649000000    10.218000000     3.845000000
O    -5.704000000     6.488000000     2.183000000
H    -5.288000000     6.697000000     1.347000000
H    -6.444000000     5.927000000     1.949000000
O    -1.767000000     8.886000000    -0.958000000
H    -0.953000000     8.578000000    -0.561000000
H    -1.815000000     9.811000000    -0.719000000
O    -4.937000000     9.973000000     0.484000000
H    -5.807000000     9.958000000     0.085000000
H    -4.714000000     9.050000000     0.606000000
O    -0.887000000     6.911000000     5.508000000
H    -1.834000000     6.824000000     5.400000000
H    -0.781000000     7.634000000     6.125000000
O    -5.920000000     7.235000000    -2.570000000
H    -6.500000000     7.562000000    -3.258000000
H    -6.293000000     7.579000000    -1.758000000
O     1.351000000     9.203000000    -0.270000000
H     0.782000000     8.691000000     0.304000000
H     2.104000000     8.635000000    -0.430000000
O    -0.065000000     7.198000000     0.661000000
H    -0.025000000     6.508000000     0.000000000
H    -0.394000000     6.759000000     1.446000000
O    -4.385000000     5.669000000    -5.390000000
H    -4.062000000     5.622000000    -4.491000000
H    -3.614000000     5.501000000    -5.931000000
O    -1.467000000     6.106000000     2.570000000
H    -2.100000000     5.416000000     2.371000000
H    -1.152000000     5.896000000     3.449000000
O     0.051000000     5.546000000    -1.583000000
H    -0.705000000     5.025000000    -1.312000000
H    -0.297000000     6.150000000    -2.239000000
O    -3.562000000     5.791000000    -2.686000000
H    -3.200000000     5.243000000    -1.990000000
H    -4.259000000     6.290000000    -2.260000000
O    -5.801000000     3.651000000     0.002000000
H    -6.300000000     4.176000000     0.627000000
H    -4.919000000     3.612000000     0.372000000
O    -3.746000000     7.202000000     0.108000000
H    -2.944000000     7.706000000    -0.031000000
H    -3.500000000     6.300000000    -0.096000000
O    -1.319000000     7.203000000    -3.208000000
H    -2.097000000     6.656000000    -3.103000000
H    -1.517000000     8.000000000    -2.716000000
O    -4.238000000     4.668000000     3.514000000
H    -3.772000000     4.190000000     2.829000000
H    -4.721000000     5.349000000     3.045000000
