215
-1458.68090
C    -5.225000000     0.612000000    -1.206000000
H    -5.293000000    -0.473000000    -1.215000000
C    -4.269000000     1.177000000    -2.098000000
C    -3.956000000     2.528000000    -1.964000000
H    -3.220000000     2.990000000    -2.616000000
C    -3.233000000     0.347000000    -2.869000000
O    -3.655000000    -1.008000000    -3.129000000
H    -2.359000000     0.288000000    -2.204000000
O    -2.799000000     1.010000000    -4.098000000
C    -1.465000000     0.865000000    -4.415000000
C    -0.658000000     1.988000000    -4.181000000
H    -1.053000000     2.925000000    -3.795000000
C     0.733000000     1.924000000    -4.177000000
O     1.363000000     3.028000000    -3.722000000
C     1.359000000     0.745000000    -4.645000000
C     2.879000000     0.529000000    -4.805000000
H     3.192000000    -0.035000000    -5.686000000
C     3.566000000     0.228000000    -3.517000000
C     3.841000000    -1.060000000    -3.189000000
H     3.682000000    -1.724000000    -4.035000000
H     3.240000000     1.536000000    -5.026000000
C     0.566000000    -0.319000000    -5.003000000
H     1.019000000    -1.265000000    -5.286000000
C    -0.833000000    -0.293000000    -4.832000000
C    -1.627000000    -1.557000000    -5.139000000
H    -1.057000000    -2.129000000    -5.874000000
H    -2.623000000    -1.476000000    -5.579000000
C    -1.809000000    -2.361000000    -3.885000000
C    -0.918000000    -3.409000000    -3.657000000
H    -0.030000000    -3.572000000    -4.262000000
C    -2.837000000    -2.061000000    -2.961000000
C    -2.994000000    -2.886000000    -1.860000000
H    -3.777000000    -2.674000000    -1.137000000
C    -2.027000000    -3.854000000    -1.582000000
O    -2.213000000    -4.381000000    -0.318000000
C    -1.275000000    -4.056000000     0.696000000
C    -2.095000000    -3.947000000     1.958000000
C    -1.468000000    -4.265000000     3.213000000
H    -0.412000000    -4.515000000     3.277000000
C    -3.430000000    -3.558000000     1.970000000
H    -3.909000000    -3.247000000     1.045000000
O    -0.164000000    -4.959000000     0.762000000
H    -0.828000000    -3.060000000     0.564000000
C    -0.969000000    -4.123000000    -2.459000000
C     0.066000000    -5.201000000    -2.109000000
H     0.684000000    -5.540000000    -2.944000000
H    -0.369000000    -6.005000000    -1.512000000
C     1.183000000    -4.649000000    -1.217000000
C     2.269000000    -3.984000000    -1.756000000
H     2.452000000    -3.948000000    -2.827000000
C     0.984000000    -4.603000000     0.199000000
C     1.970000000    -4.071000000     1.069000000
H     1.917000000    -4.070000000     2.155000000
C     3.134000000    -3.518000000     0.460000000
O     3.946000000    -2.761000000     1.290000000
C     3.727000000    -1.330000000     1.252000000
C     3.715000000    -0.618000000     2.643000000
C     2.841000000    -1.122000000     3.614000000
H     2.212000000    -1.955000000     3.313000000
C     4.546000000     0.409000000     2.937000000
H     5.304000000     0.754000000     2.239000000
O     4.655000000    -0.675000000     0.413000000
H     2.728000000    -1.190000000     0.813000000
C     3.296000000    -3.473000000    -0.976000000
C     4.491000000    -2.840000000    -1.664000000
H     4.667000000    -3.482000000    -2.529000000
H     5.474000000    -2.968000000    -1.206000000
C     4.162000000    -1.402000000    -1.926000000
C     4.363000000    -0.418000000    -0.942000000
C     4.324000000     0.971000000    -1.279000000
H     4.451000000     1.708000000    -0.491000000
C     3.874000000     1.260000000    -2.564000000
O     3.437000000     2.596000000    -2.753000000
C     2.051000000     2.882000000    -2.484000000
H     1.530000000     2.047000000    -1.994000000
C     1.823000000     4.125000000    -1.635000000
C     0.799000000     4.985000000    -1.889000000
H     0.131000000     4.755000000    -2.715000000
C     2.663000000     4.216000000    -0.494000000
H     3.424000000     3.487000000    -0.226000000
C     2.588000000     5.385000000     0.276000000
O     3.294000000     5.546000000     1.467000000
C     1.567000000     6.296000000     0.003000000
H     1.375000000     7.145000000     0.654000000
C     0.694000000     6.139000000    -1.051000000
O    -0.301000000     7.062000000    -1.225000000
C    -1.501000000     6.661000000    -1.804000000
C    -2.267000000     5.753000000    -1.112000000
H    -2.004000000     5.415000000    -0.113000000
C    -1.885000000     7.198000000    -2.999000000
H    -1.302000000     7.976000000    -3.484000000
C    -3.013000000     6.766000000    -3.666000000
H    -3.441000000     7.249000000    -4.541000000
C    -3.902000000     5.957000000    -2.907000000
H    -4.895000000     5.650000000    -3.226000000
C    -3.533000000     5.434000000    -1.628000000
O    -4.363000000     4.677000000    -0.879000000
C    -4.644000000     3.329000000    -1.061000000
C    -5.572000000     2.762000000    -0.167000000
H    -6.123000000     3.359000000     0.554000000
C    -5.862000000     1.417000000    -0.234000000
O    -6.664000000     0.786000000     0.775000000
C    -6.773000000    -0.562000000     1.009000000
C    -6.055000000    -1.148000000     2.051000000
H    -5.510000000    -0.512000000     2.744000000
C    -7.626000000    -1.348000000     0.207000000
H    -8.256000000    -0.869000000    -0.537000000
C    -7.638000000    -2.714000000     0.314000000
H    -8.188000000    -3.317000000    -0.403000000
C    -6.824000000    -3.269000000     1.298000000
H    -6.854000000    -4.335000000     1.508000000
C    -6.105000000    -2.526000000     2.158000000
O    -5.429000000    -3.050000000     3.281000000
C    -4.085000000    -3.428000000     3.186000000
C    -3.485000000    -3.736000000     4.332000000
H    -3.990000000    -3.569000000     5.280000000
C    -2.176000000    -4.100000000     4.352000000
O    -1.486000000    -4.284000000     5.573000000
C    -0.249000000    -3.890000000     5.954000000
C     0.296000000    -2.636000000     5.501000000
H    -0.246000000    -2.025000000     4.784000000
C     0.388000000    -4.512000000     7.017000000
H    -0.077000000    -5.376000000     7.484000000
C     1.583000000    -4.022000000     7.511000000
H     2.043000000    -4.552000000     8.341000000
C     2.150000000    -2.796000000     7.106000000
H     3.003000000    -2.396000000     7.648000000
C     1.493000000    -2.114000000     6.093000000
O     1.924000000    -0.884000000     5.821000000
C     2.805000000    -0.546000000     4.835000000
C     3.497000000     0.652000000     5.109000000
H     3.298000000     1.179000000     6.038000000
C     4.414000000     1.089000000     4.123000000
O     5.034000000     2.238000000     4.470000000
C     5.325000000     3.195000000     3.496000000
C     6.577000000     3.242000000     2.825000000
H     7.442000000     2.666000000     3.142000000
C     6.746000000     4.146000000     1.773000000
H     7.711000000     4.296000000     1.296000000
C     5.674000000     4.933000000     1.388000000
H     5.735000000     5.667000000     0.588000000
C     4.363000000     4.783000000     1.905000000
C     4.197000000     3.898000000     2.987000000
H     3.247000000     3.755000000     3.495000000
C    -2.301000000     1.034000000     1.675000000
H    -3.225000000     0.837000000     2.213000000
C    -1.632000000    -0.015000000     1.106000000
H    -2.094000000    -0.999000000     1.125000000
C    -0.361000000     0.144000000     0.606000000
H     0.254000000    -0.692000000     0.180000000
C     0.292000000     1.367000000     0.762000000
H     1.307000000     1.484000000     0.391000000
C    -0.329000000     2.460000000     1.336000000
H     0.143000000     3.436000000     1.415000000
C    -1.669000000     2.285000000     1.743000000
C    -2.443000000     3.524000000     2.324000000
O    -1.847000000     4.556000000     2.623000000
O    -3.645000000     3.357000000     2.602000000
O    -1.476000000     7.280000000     2.552000000
H    -0.526000000     7.167000000     2.561000000
H    -1.822000000     6.418000000     2.786000000
O     0.220000000     3.850000000     4.134000000
H    -0.396000000     4.349000000     3.598000000
H     0.041000000     2.935000000     3.916000000
O    -7.008000000     6.430000000     0.186000000
H    -7.431000000     5.743000000    -0.329000000
H    -7.733000000     6.956000000     0.525000000
O    -0.795000000     6.074000000     6.286000000
H    -1.493000000     6.101000000     5.633000000
H     0.008000000     5.968000000     5.775000000
O     1.017000000     6.327000000     3.420000000
H     1.081000000     5.412000000     3.692000000
H     1.913000000     6.572000000     3.189000000
O    -6.411000000     0.305000000     6.452000000
H    -6.412000000     0.491000000     5.513000000
H    -6.986000000    -0.454000000     6.546000000
O    -0.219000000     0.921000000     4.355000000
H    -0.706000000     0.579000000     3.606000000
H    -0.232000000     0.210000000     4.996000000
O     2.283000000     3.725000000     6.306000000
H     1.620000000     3.312000000     5.753000000
H     1.967000000     4.620000000     6.430000000
O    -1.775000000     4.305000000     8.132000000
H    -1.342000000     4.731000000     7.392000000
H    -2.179000000     3.523000000     7.755000000
O    -7.174000000     1.480000000     4.152000000
H    -7.456000000     1.845000000     3.313000000
H    -7.203000000     2.220000000     4.757000000
O    -3.493000000     5.921000000     4.395000000
H    -4.370000000     5.849000000     4.018000000
H    -2.970000000     5.284000000     3.908000000
O    -2.630000000     8.676000000     0.122000000
H    -2.278000000     8.239000000     0.898000000
H    -2.067000000     8.382000000    -0.595000000
O    -5.792000000     5.405000000     2.616000000
H    -5.757000000     5.948000000     1.828000000
H    -5.149000000     4.713000000     2.459000000
O    -3.797000000    -0.356000000     5.448000000
H    -4.443000000    -0.987000000     5.767000000
H    -3.011000000    -0.537000000     5.963000000
O    -4.271000000     2.900000000     5.092000000
H    -4.217000000     3.163000000     4.173000000
H    -4.641000000     2.017000000     5.067000000
O    -7.167000000     3.653000000     6.019000000
H    -7.676000000     4.413000000     5.737000000
H    -6.396000000     4.027000000     6.446000000
O    -4.880000000     4.508000000     7.287000000
H    -4.594000000     3.681000000     6.898000000
H    -4.070000000     4.997000000     7.433000000
O    -2.503000000     1.964000000     6.997000000
H    -2.950000000     2.020000000     6.152000000
H    -1.854000000     1.271000000     6.880000000
O    -3.242000000     9.187000000     3.574000000
H    -3.166000000     9.243000000     4.527000000
H    -2.694000000     8.441000000     3.333000000
