215
-1466.23049
C    -5.321000000    -0.108000000    -1.260000000
H    -5.621000000    -1.150000000    -1.344000000
C    -4.287000000     0.441000000    -2.048000000
C    -3.986000000     1.796000000    -1.823000000
H    -3.170000000     2.257000000    -2.374000000
C    -3.297000000    -0.426000000    -2.768000000
O    -3.733000000    -1.792000000    -2.989000000
H    -2.392000000    -0.387000000    -2.145000000
O    -2.873000000     0.029000000    -4.069000000
C    -1.576000000    -0.074000000    -4.368000000
C    -0.874000000     1.065000000    -4.552000000
H    -1.402000000     2.003000000    -4.401000000
C     0.514000000     1.023000000    -4.775000000
O     1.187000000     2.265000000    -4.734000000
C     1.199000000    -0.174000000    -5.033000000
C     2.726000000    -0.232000000    -5.157000000
H     2.993000000    -1.138000000    -5.705000000
C     3.364000000    -0.301000000    -3.733000000
C     3.721000000    -1.502000000    -3.183000000
H     3.539000000    -2.365000000    -3.818000000
H     3.103000000     0.665000000    -5.651000000
C     0.502000000    -1.346000000    -4.929000000
H     0.978000000    -2.323000000    -4.906000000
C    -0.841000000    -1.269000000    -4.667000000
C    -1.684000000    -2.556000000    -4.651000000
H    -1.200000000    -3.352000000    -5.219000000
H    -2.668000000    -2.409000000    -5.101000000
C    -1.768000000    -3.096000000    -3.241000000
C    -0.788000000    -3.964000000    -2.710000000
H     0.034000000    -4.390000000    -3.280000000
C    -2.853000000    -2.725000000    -2.484000000
C    -2.967000000    -3.134000000    -1.156000000
H    -3.761000000    -2.781000000    -0.503000000
C    -1.976000000    -3.959000000    -0.597000000
O    -2.074000000    -4.187000000     0.725000000
C    -0.976000000    -3.585000000     1.512000000
C    -1.599000000    -2.964000000     2.823000000
C    -0.771000000    -2.528000000     3.858000000
H     0.286000000    -2.776000000     3.898000000
C    -2.979000000    -2.651000000     2.834000000
H    -3.613000000    -2.922000000     1.994000000
O     0.119000000    -4.504000000     1.861000000
H    -0.534000000    -2.760000000     0.935000000
C    -0.877000000    -4.439000000    -1.381000000
C     0.249000000    -5.319000000    -0.888000000
H     0.651000000    -5.887000000    -1.730000000
H    -0.196000000    -6.118000000    -0.291000000
C     1.370000000    -4.544000000    -0.244000000
C     2.427000000    -4.159000000    -1.020000000
H     2.290000000    -4.393000000    -2.073000000
C     1.291000000    -4.250000000     1.095000000
C     2.386000000    -3.561000000     1.719000000
H     2.112000000    -3.339000000     2.747000000
C     3.372000000    -3.080000000     0.877000000
O     4.286000000    -2.176000000     1.353000000
C     4.052000000    -0.776000000     1.178000000
C     4.072000000     0.004000000     2.437000000
C     4.093000000    -0.685000000     3.637000000
H     4.195000000    -1.768000000     3.644000000
C     3.899000000     1.366000000     2.402000000
H     3.609000000     1.720000000     1.416000000
O     4.935000000    -0.296000000     0.099000000
H     3.030000000    -0.687000000     0.781000000
C     3.447000000    -3.406000000    -0.492000000
C     4.565000000    -2.909000000    -1.330000000
H     4.872000000    -3.512000000    -2.187000000
H     5.429000000    -2.902000000    -0.662000000
C     4.273000000    -1.562000000    -1.904000000
C     4.466000000    -0.377000000    -1.174000000
C     4.215000000     0.908000000    -1.771000000
H     4.498000000     1.826000000    -1.263000000
C     3.673000000     0.864000000    -3.056000000
O     3.259000000     2.105000000    -3.580000000
C     1.874000000     2.483000000    -3.448000000
H     1.353000000     1.712000000    -2.860000000
C     1.653000000     3.889000000    -2.870000000
C     0.511000000     4.644000000    -3.178000000
H    -0.195000000     4.291000000    -3.926000000
C     2.468000000     4.381000000    -1.814000000
H     3.291000000     3.783000000    -1.430000000
C     2.228000000     5.550000000    -1.142000000
O     3.110000000     6.098000000    -0.234000000
C     1.074000000     6.262000000    -1.458000000
H     0.846000000     7.203000000    -0.965000000
C     0.244000000     5.846000000    -2.504000000
O    -0.887000000     6.576000000    -2.862000000
C    -2.142000000     5.998000000    -2.809000000
C    -2.554000000     5.078000000    -1.843000000
H    -1.848000000     4.751000000    -1.083000000
C    -2.973000000     6.357000000    -3.875000000
H    -2.660000000     7.098000000    -4.606000000
C    -4.312000000     5.888000000    -3.864000000
H    -5.035000000     6.234000000    -4.598000000
C    -4.701000000     4.988000000    -2.836000000
H    -5.757000000     4.742000000    -2.768000000
C    -3.841000000     4.589000000    -1.811000000
O    -4.335000000     3.794000000    -0.773000000
C    -4.708000000     2.517000000    -0.938000000
C    -5.697000000     1.957000000    -0.220000000
H    -6.302000000     2.671000000     0.332000000
C    -6.028000000     0.622000000    -0.306000000
O    -7.141000000     0.119000000     0.370000000
C    -6.943000000    -0.869000000     1.302000000
C    -5.907000000    -0.786000000     2.299000000
H    -5.302000000     0.099000000     2.476000000
C    -7.878000000    -1.896000000     1.296000000
H    -8.720000000    -1.709000000     0.635000000
C    -7.736000000    -2.976000000     2.187000000
H    -8.440000000    -3.805000000     2.180000000
C    -6.701000000    -2.996000000     3.107000000
H    -6.535000000    -3.795000000     3.825000000
C    -5.838000000    -1.902000000     3.137000000
O    -4.911000000    -1.804000000     4.206000000
C    -3.512000000    -2.067000000     3.994000000
C    -2.693000000    -1.741000000     5.131000000
H    -3.049000000    -1.411000000     6.104000000
C    -1.309000000    -1.888000000     4.990000000
O    -0.616000000    -1.496000000     6.138000000
C     0.620000000    -2.013000000     6.301000000
C     1.679000000    -1.161000000     6.093000000
H     1.528000000    -0.131000000     5.779000000
C     0.846000000    -3.344000000     6.797000000
H     0.013000000    -4.018000000     6.980000000
C     2.155000000    -3.714000000     7.101000000
H     2.271000000    -4.746000000     7.422000000
C     3.272000000    -2.841000000     6.909000000
H     4.321000000    -3.106000000     7.008000000
C     2.966000000    -1.574000000     6.349000000
O     4.005000000    -0.712000000     6.036000000
C     4.020000000     0.024000000     4.847000000
C     3.982000000     1.384000000     4.860000000
H     3.909000000     1.894000000     5.817000000
C     3.715000000     2.010000000     3.605000000
O     3.552000000     3.404000000     3.549000000
C     4.135000000     3.992000000     2.468000000
C     5.425000000     3.718000000     2.089000000
H     6.027000000     3.113000000     2.762000000
C     6.013000000     4.278000000     0.937000000
H     7.055000000     4.059000000     0.719000000
C     5.231000000     5.115000000     0.104000000
H     5.542000000     5.649000000    -0.791000000
C     3.914000000     5.398000000     0.532000000
C     3.342000000     4.822000000     1.675000000
H     2.330000000     5.116000000     1.941000000
C    -1.943000000     1.251000000     1.164000000
H    -2.961000000     1.034000000     1.477000000
C    -1.134000000     0.348000000     0.559000000
H    -1.470000000    -0.652000000     0.296000000
C     0.095000000     0.784000000     0.101000000
H     0.689000000     0.128000000    -0.395000000
C     0.525000000     2.089000000     0.342000000
H     1.411000000     2.406000000    -0.202000000
C    -0.259000000     3.066000000     0.952000000
H     0.036000000     4.111000000     1.008000000
C    -1.549000000     2.583000000     1.424000000
C    -2.542000000     3.605000000     1.975000000
O    -2.204000000     4.740000000     1.986000000
O    -3.637000000     3.221000000     2.394000000
O    -1.234000000     6.889000000     0.497000000
H    -0.394000000     7.260000000     0.770000000
H    -1.317000000     6.083000000     1.007000000
O    -7.604000000     3.038000000     5.118000000
H    -7.275000000     2.977000000     4.221000000
H    -7.405000000     3.935000000     5.386000000
O     1.185000000     4.084000000     5.301000000
H     1.794000000     3.703000000     4.668000000
H     0.318000000     3.863000000     4.961000000
O    -4.989000000     6.198000000     0.686000000
H    -4.552000000     5.351000000     0.602000000
H    -4.377000000     6.735000000     1.189000000
O    -0.675000000     6.082000000     3.630000000
H    -1.270000000     5.666000000     3.006000000
H    -0.985000000     5.791000000     4.487000000
O    -7.692000000     5.393000000     1.011000000
H    -6.967000000     5.808000000     0.545000000
H    -7.558000000     5.635000000     1.927000000
O     0.888000000     7.703000000     2.014000000
H     1.768000000     7.631000000     2.384000000
H     0.306000000     7.437000000     2.726000000
O    -1.488000000     8.982000000     4.332000000
H    -1.810000000     9.779000000     3.910000000
H    -1.787000000     8.272000000     3.763000000
O    -5.107000000     4.206000000     6.704000000
H    -4.252000000     4.380000000     7.097000000
H    -5.093000000     4.688000000     5.877000000
O    -1.550000000     3.934000000     5.094000000
H    -1.385000000     3.069000000     5.468000000
H    -2.207000000     3.780000000     4.415000000
O    -6.297000000     2.486000000     2.708000000
H    -6.685000000     2.276000000     1.858000000
H    -5.386000000     2.701000000     2.508000000
O    -4.923000000     5.081000000     4.071000000
H    -4.323000000     4.627000000     3.479000000
H    -5.792000000     4.772000000     3.814000000
O    -2.727000000     9.045000000    -0.695000000
H    -3.324000000     9.129000000    -1.438000000
H    -2.536000000     8.109000000    -0.645000000
O    -2.012000000     1.906000000     6.604000000
H    -2.549000000     2.126000000     7.365000000
H    -2.626000000     1.515000000     5.982000000
O    -2.009000000     5.124000000     7.515000000
H    -1.660000000     4.507000000     6.872000000
H    -1.801000000     5.987000000     7.157000000
O    -4.607000000     2.027000000     5.203000000
H    -5.029000000     2.232000000     4.369000000
H    -4.862000000     2.745000000     5.783000000
O    -5.739000000     7.577000000    -1.510000000
H    -4.952000000     7.694000000    -2.043000000
H    -5.460000000     7.006000000    -0.795000000
O    -7.621000000     5.498000000     3.563000000
H    -7.076000000     6.016000000     4.155000000
H    -8.516000000     5.650000000     3.865000000
O    -3.696000000     7.449000000     2.895000000
H    -3.660000000     6.494000000     2.958000000
H    -3.847000000     7.742000000     3.794000000
