215
-1465.15286
C    -4.919000000     0.833000000    -0.388000000
H    -4.929000000    -0.224000000    -0.134000000
C    -4.219000000     1.300000000    -1.502000000
C    -4.185000000     2.691000000    -1.794000000
H    -3.607000000     3.027000000    -2.651000000
C    -3.354000000     0.357000000    -2.313000000
O    -3.956000000    -0.921000000    -2.469000000
H    -2.467000000     0.293000000    -1.666000000
O    -3.111000000     0.836000000    -3.614000000
C    -1.818000000     0.616000000    -4.085000000
C    -0.918000000     1.605000000    -3.842000000
H    -1.212000000     2.575000000    -3.450000000
C     0.421000000     1.478000000    -4.292000000
O     1.252000000     2.586000000    -4.153000000
C     0.891000000     0.276000000    -4.899000000
C     2.437000000     0.172000000    -5.230000000
H     2.649000000    -0.637000000    -5.932000000
C     3.201000000    -0.148000000    -3.966000000
C     3.314000000    -1.486000000    -3.641000000
H     2.967000000    -2.286000000    -4.288000000
H     2.715000000     1.164000000    -5.592000000
C     0.004000000    -0.738000000    -4.953000000
H     0.351000000    -1.644000000    -5.443000000
C    -1.322000000    -0.599000000    -4.603000000
C    -2.276000000    -1.751000000    -4.811000000
H    -1.888000000    -2.376000000    -5.618000000
H    -3.235000000    -1.321000000    -5.109000000
C    -2.374000000    -2.504000000    -3.475000000
C    -1.456000000    -3.598000000    -3.177000000
H    -0.833000000    -3.911000000    -4.011000000
C    -3.247000000    -2.108000000    -2.440000000
C    -3.267000000    -2.744000000    -1.227000000
H    -3.940000000    -2.396000000    -0.447000000
C    -2.348000000    -3.671000000    -0.902000000
O    -2.364000000    -4.117000000     0.428000000
C    -1.272000000    -3.762000000     1.271000000
C    -1.849000000    -3.420000000     2.688000000
C    -0.925000000    -3.256000000     3.721000000
H     0.144000000    -3.264000000     3.522000000
C    -3.220000000    -3.314000000     2.938000000
H    -3.878000000    -3.467000000     2.086000000
O    -0.303000000    -4.809000000     1.216000000
H    -0.736000000    -2.906000000     0.836000000
C    -1.484000000    -4.209000000    -1.916000000
C    -0.606000000    -5.368000000    -1.625000000
H    -0.360000000    -5.875000000    -2.561000000
H    -1.110000000    -6.100000000    -0.990000000
C     0.696000000    -4.842000000    -0.941000000
C     1.838000000    -4.525000000    -1.720000000
H     1.762000000    -4.680000000    -2.794000000
C     0.795000000    -4.595000000     0.452000000
C     1.991000000    -4.170000000     1.052000000
H     1.987000000    -4.055000000     2.133000000
C     3.023000000    -3.723000000     0.217000000
O     4.027000000    -2.980000000     0.814000000
C     3.923000000    -1.529000000     0.640000000
C     4.111000000    -0.866000000     2.007000000
C     4.170000000    -1.602000000     3.164000000
H     4.214000000    -2.679000000     3.026000000
C     3.979000000     0.550000000     2.154000000
H     3.849000000     1.150000000     1.257000000
O     4.824000000    -1.155000000    -0.324000000
H     2.915000000    -1.257000000     0.292000000
C     2.931000000    -3.818000000    -1.184000000
C     4.099000000    -3.342000000    -2.104000000
H     4.040000000    -3.910000000    -3.035000000
H     5.069000000    -3.657000000    -1.713000000
C     3.996000000    -1.876000000    -2.476000000
C     4.468000000    -0.854000000    -1.632000000
C     4.215000000     0.468000000    -1.920000000
H     4.508000000     1.203000000    -1.176000000
C     3.668000000     0.871000000    -3.140000000
O     3.363000000     2.266000000    -3.325000000
C     2.016000000     2.673000000    -2.952000000
H     1.649000000     1.864000000    -2.303000000
C     1.961000000     4.059000000    -2.239000000
C     0.919000000     4.952000000    -2.598000000
H     0.235000000     4.625000000    -3.376000000
C     2.862000000     4.502000000    -1.239000000
H     3.605000000     3.793000000    -0.885000000
C     2.588000000     5.724000000    -0.541000000
O     3.267000000     6.196000000     0.543000000
C     1.551000000     6.535000000    -0.954000000
H     1.343000000     7.479000000    -0.457000000
C     0.696000000     6.174000000    -1.957000000
O    -0.401000000     7.021000000    -2.263000000
C    -1.666000000     6.502000000    -2.708000000
C    -2.592000000     6.009000000    -1.740000000
H    -2.267000000     5.900000000    -0.709000000
C    -1.966000000     6.508000000    -4.058000000
H    -1.202000000     6.846000000    -4.754000000
C    -3.202000000     6.062000000    -4.446000000
H    -3.529000000     6.202000000    -5.473000000
C    -4.144000000     5.585000000    -3.485000000
H    -5.109000000     5.192000000    -3.795000000
C    -3.838000000     5.523000000    -2.155000000
O    -4.739000000     4.964000000    -1.272000000
C    -4.806000000     3.605000000    -0.937000000
C    -5.426000000     3.128000000     0.208000000
H    -6.005000000     3.781000000     0.856000000
C    -5.443000000     1.752000000     0.561000000
O    -5.975000000     1.315000000     1.794000000
C    -6.177000000    -0.033000000     2.133000000
C    -5.401000000    -0.680000000     3.102000000
H    -4.614000000    -0.123000000     3.603000000
C    -7.250000000    -0.670000000     1.527000000
H    -7.946000000    -0.053000000     0.964000000
C    -7.542000000    -1.994000000     1.951000000
H    -8.480000000    -2.427000000     1.615000000
C    -6.848000000    -2.536000000     3.020000000
H    -7.075000000    -3.553000000     3.329000000
C    -5.708000000    -1.995000000     3.489000000
O    -4.996000000    -2.625000000     4.430000000
C    -3.651000000    -2.948000000     4.208000000
C    -2.775000000    -2.653000000     5.196000000
H    -3.183000000    -2.327000000     6.149000000
C    -1.400000000    -2.868000000     4.980000000
O    -0.523000000    -2.688000000     6.056000000
C     0.792000000    -3.095000000     6.191000000
C     1.870000000    -2.278000000     5.840000000
H     1.728000000    -1.265000000     5.473000000
C     1.023000000    -4.337000000     6.821000000
H     0.157000000    -4.895000000     7.167000000
C     2.307000000    -4.733000000     7.025000000
H     2.542000000    -5.598000000     7.639000000
C     3.408000000    -3.923000000     6.668000000
H     4.414000000    -4.227000000     6.948000000
C     3.225000000    -2.751000000     5.936000000
O     4.314000000    -1.916000000     5.568000000
C     4.221000000    -1.072000000     4.455000000
C     4.187000000     0.314000000     4.601000000
H     4.332000000     0.824000000     5.550000000
C     3.979000000     1.098000000     3.412000000
O     3.824000000     2.403000000     3.613000000
C     4.344000000     3.446000000     2.801000000
C     5.689000000     3.510000000     2.660000000
H     6.301000000     2.750000000     3.139000000
C     6.220000000     4.453000000     1.810000000
H     7.304000000     4.373000000     1.771000000
C     5.401000000     5.403000000     1.177000000
H     5.822000000     6.160000000     0.521000000
C     4.039000000     5.358000000     1.316000000
C     3.486000000     4.338000000     2.161000000
H     2.426000000     4.096000000     2.156000000
C     0.194000000     0.446000000     2.197000000
H     0.334000000    -0.017000000     3.170000000
C     0.848000000    -0.121000000     1.135000000
H     1.375000000    -1.060000000     1.279000000
C     0.672000000     0.356000000    -0.178000000
H     1.079000000    -0.197000000    -1.056000000
C    -0.219000000     1.453000000    -0.381000000
H    -0.454000000     1.813000000    -1.379000000
C    -0.909000000     1.977000000     0.720000000
H    -1.590000000     2.815000000     0.594000000
C    -0.629000000     1.530000000     2.025000000
C    -1.213000000     2.056000000     3.329000000
O    -2.171000000     2.852000000     3.318000000
O    -0.671000000     1.737000000     4.395000000
O     0.537000000     2.366000000     9.205000000
H     0.041000000     1.817000000     8.598000000
H    -0.125000000     2.910000000     9.632000000
O    -2.528000000     7.641000000     3.021000000
H    -1.664000000     7.656000000     3.432000000
H    -2.607000000     6.758000000     2.660000000
O    -5.602000000    -0.563000000     6.411000000
H    -5.609000000    -1.307000000     5.808000000
H    -4.894000000    -0.003000000     6.091000000
O     1.708000000     2.560000000     5.491000000
H     2.304000000     2.408000000     4.757000000
H     0.919000000     2.067000000     5.266000000
O    -5.011000000     3.564000000     3.544000000
H    -5.826000000     3.112000000     3.764000000
H    -4.363000000     2.864000000     3.462000000
O    -3.165000000     5.087000000     2.226000000
H    -3.995000000     4.651000000     2.417000000
H    -2.498000000     4.424000000     2.409000000
O     3.607000000     2.363000000     7.513000000
H     3.449000000     3.199000000     7.952000000
H     2.951000000     2.330000000     6.817000000
O    -1.036000000     2.129000000     6.986000000
H    -1.064000000     3.086000000     6.995000000
H    -1.257000000     1.891000000     6.086000000
O    -5.126000000     7.378000000     3.460000000
H    -4.244000000     7.028000000     3.332000000
H    -4.991000000     8.201000000     3.930000000
O     0.444000000     7.204000000     3.436000000
H     1.373000000     7.299000000     3.647000000
H     0.241000000     6.295000000     3.654000000
O    -5.587000000     5.049000000     6.984000000
H    -5.473000000     4.157000000     6.657000000
H    -6.277000000     5.420000000     6.433000000
O    -0.629000000     4.758000000     7.460000000
H     0.319000000     4.836000000     7.358000000
H    -0.987000000     5.454000000     6.908000000
O    -3.196000000     0.567000000     5.879000000
H    -2.781000000     1.313000000     5.445000000
H    -2.669000000     0.424000000     6.665000000
O    -3.240000000     4.666000000     5.144000000
H    -2.724000000     3.977000000     4.724000000
H    -4.107000000     4.590000000     4.746000000
O     1.510000000     5.890000000     6.505000000
H     0.747000000     6.468000000     6.533000000
H     1.674000000     5.755000000     5.572000000
O    -3.638000000     7.165000000     7.067000000
H    -2.685000000     7.086000000     7.118000000
H    -3.924000000     6.345000000     6.663000000
O     1.070000000    -0.285000000     8.553000000
H     0.120000000    -0.398000000     8.589000000
H     1.231000000     0.532000000     9.023000000
O    -3.682000000     0.760000000     8.809000000
H    -4.556000000     0.935000000     9.158000000
H    -3.168000000     1.529000000     9.053000000
O     0.161000000     4.686000000     4.150000000
H    -0.707000000     4.286000000     4.099000000
H     0.671000000     4.083000000     4.691000000
