215
-1433.11182
C    -3.851000000     1.092000000    -0.303000000
H    -3.491000000     0.159000000     0.123000000
C    -3.652000000     1.402000000    -1.656000000
C    -3.852000000     2.752000000    -2.117000000
H    -3.711000000     2.907000000    -3.184000000
C    -3.021000000     0.305000000    -2.479000000
O    -3.764000000    -0.916000000    -2.335000000
H    -2.014000000     0.129000000    -2.074000000
O    -2.899000000     0.626000000    -3.890000000
C    -1.726000000     0.427000000    -4.468000000
C    -0.823000000     1.420000000    -4.596000000
H    -1.082000000     2.436000000    -4.310000000
C     0.434000000     1.202000000    -5.015000000
O     1.344000000     2.200000000    -4.739000000
C     0.869000000    -0.074000000    -5.202000000
C     2.339000000    -0.440000000    -5.397000000
H     2.513000000    -1.298000000    -6.050000000
C     3.039000000    -0.555000000    -4.013000000
C     3.305000000    -1.834000000    -3.565000000
H     3.063000000    -2.732000000    -4.129000000
H     2.849000000     0.245000000    -6.078000000
C     0.003000000    -1.104000000    -5.053000000
H     0.285000000    -2.151000000    -5.125000000
C    -1.331000000    -0.828000000    -4.677000000
C    -2.280000000    -2.024000000    -4.556000000
H    -2.126000000    -2.718000000    -5.386000000
H    -3.251000000    -1.662000000    -4.898000000
C    -2.370000000    -2.671000000    -3.138000000
C    -1.639000000    -3.837000000    -2.790000000
H    -1.112000000    -4.376000000    -3.574000000
C    -3.081000000    -2.053000000    -2.156000000
C    -3.124000000    -2.569000000    -0.840000000
H    -3.706000000    -2.093000000    -0.055000000
C    -2.353000000    -3.700000000    -0.523000000
O    -2.540000000    -4.215000000     0.732000000
C    -1.407000000    -4.127000000     1.684000000
C    -1.862000000    -3.871000000     3.082000000
C    -1.061000000    -4.162000000     4.153000000
H    -0.108000000    -4.683000000     4.106000000
C    -3.052000000    -3.107000000     3.320000000
H    -3.660000000    -2.829000000     2.464000000
O    -0.487000000    -5.192000000     1.492000000
H    -0.948000000    -3.168000000     1.400000000
C    -1.647000000    -4.359000000    -1.491000000
C    -0.744000000    -5.602000000    -1.255000000
H    -0.437000000    -6.076000000    -2.190000000
H    -1.249000000    -6.382000000    -0.681000000
C     0.611000000    -5.159000000    -0.602000000
C     1.638000000    -4.683000000    -1.404000000
H     1.484000000    -4.708000000    -2.480000000
C     0.610000000    -4.915000000     0.698000000
C     1.674000000    -4.325000000     1.354000000
H     1.551000000    -4.159000000     2.421000000
C     2.727000000    -3.859000000     0.575000000
O     3.615000000    -3.019000000     1.172000000
C     3.351000000    -1.646000000     0.926000000
C     3.496000000    -0.847000000     2.188000000
C     3.521000000    -1.440000000     3.469000000
H     3.492000000    -2.526000000     3.500000000
C     3.386000000     0.564000000     2.095000000
H     3.503000000     0.991000000     1.102000000
O     4.328000000    -1.187000000    -0.084000000
H     2.291000000    -1.598000000     0.635000000
C     2.734000000    -4.038000000    -0.826000000
C     3.768000000    -3.480000000    -1.694000000
H     3.892000000    -4.179000000    -2.524000000
H     4.668000000    -3.476000000    -1.074000000
C     3.674000000    -2.070000000    -2.211000000
C     4.049000000    -0.958000000    -1.433000000
C     4.066000000     0.278000000    -2.006000000
H     4.292000000     1.170000000    -1.427000000
C     3.469000000     0.509000000    -3.188000000
O     3.201000000     1.812000000    -3.500000000
C     1.810000000     2.241000000    -3.346000000
H     1.248000000     1.630000000    -2.624000000
C     1.678000000     3.719000000    -2.778000000
C     0.736000000     4.615000000    -3.212000000
H     0.088000000     4.249000000    -4.004000000
C     2.570000000     4.269000000    -1.782000000
H     3.265000000     3.631000000    -1.243000000
C     2.553000000     5.590000000    -1.335000000
O     3.407000000     6.075000000    -0.334000000
C     1.566000000     6.495000000    -1.833000000
H     1.677000000     7.552000000    -1.603000000
C     0.726000000     6.019000000    -2.836000000
O    -0.334000000     6.825000000    -3.199000000
C    -1.670000000     6.551000000    -3.431000000
C    -2.426000000     5.876000000    -2.487000000
H    -1.980000000     5.539000000    -1.555000000
C    -2.312000000     7.196000000    -4.456000000
H    -1.671000000     7.764000000    -5.126000000
C    -3.716000000     7.031000000    -4.690000000
H    -4.143000000     7.312000000    -5.649000000
C    -4.475000000     6.288000000    -3.797000000
H    -5.561000000     6.255000000    -3.827000000
C    -3.827000000     5.706000000    -2.662000000
O    -4.628000000     4.990000000    -1.755000000
C    -4.411000000     3.722000000    -1.266000000
C    -4.518000000     3.393000000     0.120000000
H    -4.878000000     4.151000000     0.811000000
C    -4.239000000     2.095000000     0.605000000
O    -4.483000000     1.850000000     1.898000000
C    -5.032000000     0.700000000     2.400000000
C    -4.345000000    -0.210000000     3.180000000
H    -3.295000000    -0.075000000     3.425000000
C    -6.383000000     0.464000000     2.136000000
H    -6.928000000     1.187000000     1.536000000
C    -7.097000000    -0.529000000     2.773000000
H    -8.177000000    -0.530000000     2.655000000
C    -6.440000000    -1.273000000     3.776000000
H    -7.052000000    -1.974000000     4.337000000
C    -5.069000000    -1.068000000     3.954000000
O    -4.432000000    -1.860000000     4.839000000
C    -3.350000000    -2.679000000     4.585000000
C    -2.536000000    -3.021000000     5.614000000
H    -2.806000000    -2.660000000     6.604000000
C    -1.332000000    -3.706000000     5.435000000
O    -0.553000000    -4.055000000     6.539000000
C     0.798000000    -3.831000000     6.608000000
C     1.398000000    -2.699000000     6.096000000
H     0.728000000    -2.029000000     5.564000000
C     1.561000000    -4.736000000     7.358000000
H     1.091000000    -5.572000000     7.869000000
C     2.905000000    -4.490000000     7.408000000
H     3.563000000    -5.134000000     7.986000000
C     3.532000000    -3.349000000     6.938000000
H     4.611000000    -3.271000000     7.044000000
C     2.747000000    -2.404000000     6.242000000
O     3.413000000    -1.237000000     5.864000000
C     3.357000000    -0.662000000     4.592000000
C     3.204000000     0.718000000     4.499000000
H     3.123000000     1.318000000     5.402000000
C     3.348000000     1.326000000     3.227000000
O     3.349000000     2.747000000     3.220000000
C     4.060000000     3.523000000     2.262000000
C     5.436000000     3.427000000     2.141000000
H     5.955000000     2.782000000     2.845000000
C     6.193000000     4.189000000     1.281000000
H     7.280000000     4.173000000     1.255000000
C     5.547000000     5.106000000     0.457000000
H     6.079000000     5.851000000    -0.128000000
C     4.132000000     5.142000000     0.460000000
C     3.418000000     4.393000000     1.371000000
H     2.343000000     4.488000000     1.500000000
C    -0.159000000     0.542000000     2.265000000
H    -0.233000000     0.316000000     3.325000000
C     0.050000000    -0.405000000     1.220000000
H     0.271000000    -1.453000000     1.403000000
C    -0.073000000    -0.020000000    -0.090000000
H    -0.002000000    -0.749000000    -0.847000000
C    -0.324000000     1.252000000    -0.415000000
H    -0.425000000     1.468000000    -1.475000000
C    -0.534000000     2.206000000     0.579000000
H    -0.853000000     3.209000000     0.308000000
C    -0.392000000     1.887000000     1.980000000
C    -0.547000000     2.886000000     3.036000000
O    -0.672000000     4.036000000     2.616000000
O    -0.856000000     2.604000000     4.184000000
O    -3.168000000     0.967000000     6.743000000
H    -3.027000000     1.072000000     7.684000000
H    -3.880000000     0.332000000     6.676000000
O    -1.735000000     6.432000000     6.387000000
H    -2.614000000     6.177000000     6.666000000
H    -1.588000000     7.281000000     6.804000000
O     3.902000000     6.763000000     5.184000000
H     4.733000000     6.662000000     4.721000000
H     3.268000000     6.970000000     4.497000000
O    -2.418000000     7.203000000     3.907000000
H    -1.844000000     6.794000000     4.554000000
H    -2.846000000     6.468000000     3.468000000
O    -0.167000000     2.951000000     6.835000000
H     0.394000000     3.641000000     6.479000000
H    -0.772000000     2.743000000     6.124000000
O    -5.926000000     3.351000000     4.356000000
H    -6.229000000     2.586000000     4.846000000
H    -4.973000000     3.331000000     4.447000000
O     0.325000000     6.151000000     1.396000000
H    -0.247000000     6.504000000     0.714000000
H    -0.113000000     5.350000000     1.684000000
O     3.138000000     4.036000000     5.654000000
H     2.812000000     4.918000000     5.471000000
H     3.187000000     3.617000000     4.795000000
O    -3.352000000     3.092000000     5.037000000
H    -3.173000000     2.380000000     5.652000000
H    -2.496000000     3.315000000     4.673000000
O    -1.770000000     1.492000000     9.266000000
H    -2.701000000     1.510000000     9.484000000
H    -1.670000000     2.158000000     8.585000000
O    -4.114000000     6.801000000     0.795000000
H    -4.125000000     5.965000000     1.260000000
H    -3.188000000     7.039000000     0.751000000
O     2.001000000     7.275000000     3.124000000
H     1.529000000     7.085000000     3.935000000
H     1.531000000     6.780000000     2.452000000
O    -0.561000000    -0.017000000     6.242000000
H    -0.718000000     0.467000000     5.432000000
H    -1.206000000     0.331000000     6.858000000
O    -3.237000000     4.899000000     2.793000000
H    -2.360000000     4.561000000     2.610000000
H    -3.733000000     4.133000000     3.081000000
O     1.502000000     6.781000000     7.346000000
H     0.982000000     6.274000000     6.722000000
H     2.308000000     6.987000000     6.873000000
O     1.790000000     3.192000000     9.251000000
H     2.078000000     2.520000000     8.633000000
H     0.886000000     3.379000000     8.998000000
O     1.725000000     0.411000000     8.148000000
H     1.760000000    -0.460000000     8.542000000
H     0.937000000     0.398000000     7.605000000
O    -4.582000000     5.851000000     6.089000000
H    -4.457000000     4.912000000     5.956000000
H    -4.717000000     6.202000000     5.209000000
O     0.598000000     5.553000000     4.699000000
H    -0.128000000     5.882000000     5.229000000
H     0.177000000     5.158000000     3.935000000
