215
-1467.84720
C    -2.285000000    -1.339000000    -4.135000000
H    -1.537000000    -2.112000000    -3.977000000
C    -2.002000000     0.056000000    -4.201000000
C    -3.083000000     0.937000000    -4.181000000
H    -2.955000000     2.014000000    -4.243000000
C    -0.604000000     0.590000000    -4.131000000
O     0.315000000    -0.337000000    -4.847000000
H    -0.327000000     0.562000000    -3.067000000
O    -0.483000000     1.893000000    -4.605000000
C     0.237000000     2.749000000    -3.738000000
C    -0.468000000     3.592000000    -2.914000000
H    -1.555000000     3.598000000    -2.903000000
C     0.185000000     4.297000000    -1.959000000
O    -0.495000000     4.899000000    -0.974000000
C     1.604000000     4.255000000    -1.874000000
C     2.439000000     4.866000000    -0.773000000
H     3.479000000     5.036000000    -1.061000000
C     2.461000000     3.964000000     0.510000000
C     3.572000000     3.161000000     0.639000000
H     4.237000000     3.111000000    -0.219000000
H     2.211000000     5.875000000    -0.423000000
C     2.284000000     3.300000000    -2.594000000
H     3.340000000     3.077000000    -2.462000000
C     1.622000000     2.636000000    -3.623000000
C     2.462000000     1.789000000    -4.537000000
H     3.459000000     2.203000000    -4.702000000
H     1.972000000     1.746000000    -5.512000000
C     2.534000000     0.309000000    -4.072000000
C     3.665000000    -0.205000000    -3.414000000
H     4.496000000     0.484000000    -3.289000000
C     1.481000000    -0.625000000    -4.231000000
C     1.573000000    -1.929000000    -3.606000000
H     0.715000000    -2.596000000    -3.589000000
C     2.734000000    -2.392000000    -2.994000000
O     2.860000000    -3.676000000    -2.415000000
C     2.407000000    -3.831000000    -1.028000000
C     1.538000000    -4.994000000    -0.685000000
C     1.368000000    -5.510000000     0.564000000
H     2.018000000    -5.152000000     1.359000000
C     0.614000000    -5.348000000    -1.692000000
H     0.562000000    -4.854000000    -2.659000000
O     3.531000000    -3.682000000    -0.169000000
H     1.802000000    -2.923000000    -0.891000000
C     3.763000000    -1.495000000    -2.920000000
C     4.998000000    -1.913000000    -2.077000000
H     5.870000000    -1.377000000    -2.459000000
H     5.252000000    -2.971000000    -2.164000000
C     4.761000000    -1.582000000    -0.596000000
C     5.003000000    -0.314000000    -0.046000000
H     5.361000000     0.451000000    -0.730000000
C     3.992000000    -2.459000000     0.225000000
C     3.704000000    -2.113000000     1.535000000
H     3.135000000    -2.763000000     2.195000000
C     3.997000000    -0.886000000     2.027000000
O     3.520000000    -0.606000000     3.329000000
C     2.290000000     0.159000000     3.401000000
C     1.331000000    -0.370000000     4.370000000
C     1.146000000    -1.740000000     4.474000000
H     1.809000000    -2.412000000     3.935000000
C     0.586000000     0.543000000     5.152000000
H     0.853000000     1.597000000     5.135000000
O     2.588000000     1.518000000     3.748000000
H     1.826000000     0.194000000     2.404000000
C     4.655000000     0.036000000     1.280000000
C     4.971000000     1.443000000     1.780000000
H     5.685000000     1.916000000     1.103000000
H     5.596000000     1.416000000     2.675000000
C     3.700000000     2.340000000     1.743000000
C     2.681000000     2.398000000     2.715000000
C     1.593000000     3.251000000     2.603000000
H     0.781000000     3.138000000     3.316000000
C     1.519000000     4.110000000     1.493000000
O     0.313000000     4.713000000     1.239000000
C    -0.549000000     4.143000000     0.262000000
H    -0.238000000     3.104000000     0.077000000
C    -1.995000000     4.185000000     0.883000000
C    -3.089000000     4.623000000     0.078000000
H    -2.896000000     4.702000000    -0.988000000
C    -2.242000000     3.861000000     2.223000000
H    -1.419000000     3.595000000     2.881000000
C    -3.517000000     4.107000000     2.756000000
O    -3.837000000     3.788000000     4.065000000
C    -4.523000000     4.554000000     1.925000000
H    -5.530000000     4.568000000     2.333000000
C    -4.381000000     4.822000000     0.618000000
O    -5.465000000     4.835000000    -0.186000000
C    -5.370000000     4.409000000    -1.475000000
C    -5.457000000     3.084000000    -1.888000000
H    -5.580000000     2.306000000    -1.139000000
C    -5.155000000     5.392000000    -2.472000000
H    -5.223000000     6.450000000    -2.233000000
C    -5.017000000     5.104000000    -3.814000000
H    -4.771000000     5.923000000    -4.485000000
C    -5.072000000     3.794000000    -4.167000000
H    -5.112000000     3.425000000    -5.189000000
C    -5.414000000     2.766000000    -3.236000000
O    -5.450000000     1.506000000    -3.772000000
C    -4.415000000     0.574000000    -3.884000000
C    -4.629000000    -0.806000000    -3.964000000
H    -5.626000000    -1.201000000    -3.790000000
C    -3.636000000    -1.703000000    -4.144000000
O    -4.038000000    -3.008000000    -4.119000000
C    -3.079000000    -3.996000000    -4.326000000
C    -2.725000000    -4.838000000    -3.222000000
H    -3.171000000    -4.769000000    -2.233000000
C    -2.466000000    -4.057000000    -5.549000000
H    -2.665000000    -3.456000000    -6.433000000
C    -1.514000000    -5.093000000    -5.745000000
H    -1.059000000    -5.164000000    -6.730000000
C    -1.169000000    -5.900000000    -4.698000000
H    -0.327000000    -6.582000000    -4.779000000
C    -1.733000000    -5.780000000    -3.426000000
O    -1.301000000    -6.614000000    -2.378000000
C    -0.371000000    -6.308000000    -1.433000000
C    -0.400000000    -6.977000000    -0.197000000
H    -1.185000000    -7.728000000    -0.225000000
C     0.472000000    -6.519000000     0.857000000
O     0.378000000    -7.018000000     2.147000000
C     0.734000000    -6.288000000     3.298000000
C     0.053000000    -5.153000000     3.757000000
H    -0.847000000    -4.853000000     3.226000000
C     1.791000000    -6.864000000     3.995000000
H     2.249000000    -7.801000000     3.689000000
C     2.202000000    -6.135000000     5.132000000
H     3.072000000    -6.523000000     5.656000000
C     1.575000000    -5.008000000     5.630000000
H     1.787000000    -4.563000000     6.599000000
C     0.488000000    -4.501000000     4.953000000
O    -0.212000000    -3.514000000     5.506000000
C     0.056000000    -2.163000000     5.248000000
C    -0.738000000    -1.251000000     5.942000000
H    -1.500000000    -1.662000000     6.600000000
C    -0.431000000     0.079000000     6.013000000
O    -1.112000000     0.998000000     6.779000000
C    -1.445000000     2.313000000     6.323000000
C    -1.051000000     3.393000000     7.120000000
H    -0.382000000     3.163000000     7.946000000
C    -1.451000000     4.643000000     6.729000000
H    -1.005000000     5.535000000     7.160000000
C    -2.359000000     4.824000000     5.664000000
H    -2.681000000     5.810000000     5.339000000
C    -2.883000000     3.680000000     5.062000000
C    -2.427000000     2.443000000     5.383000000
H    -2.800000000     1.563000000     4.865000000
C    -0.981000000    -1.735000000     1.880000000
H    -1.129000000    -2.453000000     2.683000000
C     0.046000000    -1.860000000     0.960000000
H     0.868000000    -2.569000000     1.030000000
C     0.123000000    -0.915000000    -0.086000000
H     0.953000000    -0.866000000    -0.715000000
C    -0.715000000     0.214000000    -0.052000000
H    -0.499000000     0.972000000    -0.800000000
C    -1.757000000     0.299000000     0.880000000
H    -2.415000000     1.165000000     0.851000000
C    -1.945000000    -0.697000000     1.827000000
C    -3.093000000    -0.685000000     2.798000000
O    -3.756000000     0.343000000     2.963000000
O    -3.405000000    -1.698000000     3.447000000
O    -6.224000000     3.920000000     5.733000000
H    -6.106000000     4.799000000     5.372000000
H    -5.664000000     3.902000000     6.509000000
O    -5.954000000     1.499000000     3.770000000
H    -5.867000000     2.380000000     4.133000000
H    -5.114000000     1.332000000     3.342000000
O    -3.146000000    -3.974000000     2.133000000
H    -2.912000000    -4.696000000     2.717000000
H    -3.167000000    -3.204000000     2.700000000
O    -7.876000000     1.648000000     1.522000000
H    -7.177000000     1.171000000     1.074000000
H    -7.722000000     1.480000000     2.452000000
O    -5.589000000    -4.679000000     1.250000000
H    -6.175000000    -4.577000000     2.000000000
H    -4.719000000    -4.481000000     1.597000000
O    -2.862000000    -3.318000000    -0.396000000
H    -2.019000000    -2.866000000    -0.373000000
H    -2.997000000    -3.622000000     0.501000000
O    -9.880000000    -0.811000000     3.326000000
H   -10.030000000    -1.178000000     4.197000000
H    -9.302000000    -1.442000000     2.897000000
O    -7.731000000    -2.614000000     0.836000000
H    -7.004000000    -2.541000000     0.218000000
H    -7.361000000    -2.340000000     1.675000000
O    -6.340000000    -5.326000000    -1.483000000
H    -5.951000000    -5.051000000    -0.653000000
H    -7.108000000    -5.839000000    -1.230000000
O    -4.890000000    -0.424000000     5.947000000
H    -4.371000000    -0.710000000     5.196000000
H    -5.583000000     0.117000000     5.568000000
O    -6.265000000    -1.331000000     3.236000000
H    -6.165000000    -0.384000000     3.334000000
H    -5.374000000    -1.653000000     3.102000000
O    -5.613000000    -5.759000000     6.257000000
H    -5.245000000    -4.905000000     6.486000000
H    -5.720000000    -5.726000000     5.306000000
O    -5.353000000     0.589000000     0.627000000
H    -4.884000000     0.431000000     1.447000000
H    -5.329000000    -0.252000000     0.171000000
O    -3.641000000     0.649000000     8.269000000
H    -2.848000000     0.123000000     8.371000000
H    -4.100000000     0.248000000     7.530000000
O    -5.314000000    -2.163000000    -1.056000000
H    -4.359000000    -2.197000000    -1.094000000
H    -5.577000000    -3.050000000    -0.812000000
O    -6.705000000    -4.513000000     3.905000000
H    -6.780000000    -3.727000000     4.447000000
H    -7.584000000    -4.642000000     3.549000000
O    -3.080000000    -4.374000000     6.319000000
H    -2.486000000    -3.973000000     5.684000000
H    -2.870000000    -5.308000000     6.286000000
O    -6.809000000    -2.895000000     6.345000000
H    -6.915000000    -2.589000000     7.246000000
H    -6.049000000    -2.415000000     6.018000000
O    -3.248000000    -2.477000000     8.423000000
H    -3.140000000    -2.948000000     7.596000000
H    -2.396000000    -2.549000000     8.852000000
