215
-1450.38980
C    -4.097000000     1.323000000     0.124000000
H    -3.765000000     0.430000000     0.647000000
C    -4.049000000     1.454000000    -1.244000000
C    -4.289000000     2.701000000    -1.818000000
H    -4.317000000     2.761000000    -2.903000000
C    -3.390000000     0.362000000    -2.060000000
O    -4.030000000    -0.958000000    -1.682000000
H    -2.340000000     0.382000000    -1.733000000
O    -3.462000000     0.610000000    -3.483000000
C    -2.326000000     0.202000000    -4.164000000
C    -1.456000000     1.215000000    -4.481000000
H    -1.653000000     2.274000000    -4.335000000
C    -0.232000000     1.019000000    -4.992000000
O     0.687000000     2.113000000    -4.972000000
C     0.206000000    -0.286000000    -5.127000000
C     1.616000000    -0.615000000    -5.515000000
H     1.668000000    -1.522000000    -6.121000000
C     2.540000000    -0.763000000    -4.300000000
C     2.728000000    -2.045000000    -3.774000000
H     2.423000000    -2.926000000    -4.332000000
H     2.034000000     0.185000000    -6.130000000
C    -0.627000000    -1.340000000    -4.707000000
H    -0.260000000    -2.360000000    -4.773000000
C    -1.904000000    -1.120000000    -4.321000000
C    -2.865000000    -2.312000000    -3.906000000
H    -2.914000000    -3.078000000    -4.684000000
H    -3.884000000    -1.932000000    -3.993000000
C    -2.724000000    -2.831000000    -2.496000000
C    -2.008000000    -4.025000000    -2.268000000
H    -1.652000000    -4.602000000    -3.118000000
C    -3.299000000    -2.089000000    -1.417000000
C    -3.174000000    -2.536000000    -0.156000000
H    -3.508000000    -1.986000000     0.720000000
C    -2.443000000    -3.708000000     0.080000000
O    -2.315000000    -4.120000000     1.379000000
C    -1.127000000    -3.748000000     2.123000000
C    -1.384000000    -3.382000000     3.569000000
C    -0.507000000    -3.734000000     4.572000000
H     0.348000000    -4.366000000     4.345000000
C    -2.468000000    -2.582000000     3.778000000
H    -3.112000000    -2.378000000     2.926000000
O    -0.172000000    -4.876000000     2.034000000
H    -0.634000000    -2.889000000     1.643000000
C    -1.851000000    -4.485000000    -0.970000000
C    -0.940000000    -5.713000000    -0.708000000
H    -0.975000000    -6.346000000    -1.598000000
H    -1.403000000    -6.248000000     0.124000000
C     0.463000000    -5.128000000    -0.292000000
C     1.400000000    -4.642000000    -1.280000000
H     1.172000000    -4.764000000    -2.336000000
C     0.755000000    -4.802000000     1.050000000
C     2.019000000    -4.380000000     1.393000000
H     2.261000000    -4.183000000     2.435000000
C     2.852000000    -3.972000000     0.397000000
O     3.790000000    -3.148000000     0.844000000
C     3.574000000    -1.697000000     0.537000000
C     3.774000000    -0.743000000     1.728000000
C     3.791000000    -1.285000000     3.071000000
H     3.723000000    -2.351000000     3.273000000
C     3.811000000     0.602000000     1.560000000
H     3.779000000     1.049000000     0.570000000
O     4.353000000    -1.239000000    -0.580000000
H     2.541000000    -1.542000000     0.193000000
C     2.553000000    -4.035000000    -0.956000000
C     3.579000000    -3.608000000    -1.996000000
H     3.476000000    -4.308000000    -2.829000000
H     4.619000000    -3.653000000    -1.667000000
C     3.266000000    -2.187000000    -2.519000000
C     3.699000000    -1.058000000    -1.764000000
C     3.437000000     0.227000000    -2.284000000
H     3.790000000     1.160000000    -1.853000000
C     2.808000000     0.389000000    -3.518000000
O     2.717000000     1.639000000    -3.982000000
C     1.367000000     2.257000000    -3.749000000
H     0.920000000     1.661000000    -2.939000000
C     1.503000000     3.653000000    -3.286000000
C     0.441000000     4.549000000    -3.454000000
H    -0.361000000     4.230000000    -4.115000000
C     2.571000000     4.073000000    -2.554000000
H     3.249000000     3.280000000    -2.250000000
C     2.725000000     5.381000000    -2.136000000
O     3.852000000     5.676000000    -1.509000000
C     1.633000000     6.232000000    -2.175000000
H     1.777000000     7.279000000    -1.922000000
C     0.464000000     5.825000000    -2.908000000
O    -0.536000000     6.762000000    -3.104000000
C    -1.820000000     6.280000000    -3.286000000
C    -2.615000000     5.859000000    -2.307000000
H    -2.238000000     5.877000000    -1.288000000
C    -2.347000000     6.300000000    -4.614000000
H    -1.713000000     6.531000000    -5.465000000
C    -3.575000000     5.791000000    -4.941000000
H    -3.971000000     5.626000000    -5.939000000
C    -4.396000000     5.359000000    -3.856000000
H    -5.398000000     4.984000000    -4.047000000
C    -3.965000000     5.460000000    -2.544000000
O    -4.856000000     5.082000000    -1.561000000
C    -4.667000000     3.802000000    -1.040000000
C    -4.866000000     3.640000000     0.325000000
H    -5.278000000     4.484000000     0.872000000
C    -4.600000000     2.398000000     0.910000000
O    -4.756000000     2.216000000     2.246000000
C    -5.134000000     1.026000000     2.813000000
C    -4.336000000     0.428000000     3.774000000
H    -3.398000000     0.880000000     4.088000000
C    -6.345000000     0.396000000     2.456000000
H    -7.023000000     0.860000000     1.745000000
C    -6.697000000    -0.907000000     2.949000000
H    -7.545000000    -1.490000000     2.599000000
C    -5.864000000    -1.515000000     3.891000000
H    -6.015000000    -2.524000000     4.267000000
C    -4.673000000    -0.819000000     4.317000000
O    -3.886000000    -1.341000000     5.342000000
C    -2.755000000    -2.140000000     5.090000000
C    -1.899000000    -2.479000000     6.102000000
H    -2.096000000    -2.220000000     7.139000000
C    -0.751000000    -3.187000000     5.825000000
O     0.070000000    -3.463000000     6.848000000
C     1.389000000    -3.249000000     6.744000000
C     1.897000000    -2.180000000     5.981000000
H     1.287000000    -1.443000000     5.465000000
C     2.223000000    -4.195000000     7.371000000
H     1.802000000    -5.088000000     7.826000000
C     3.591000000    -3.964000000     7.308000000
H     4.252000000    -4.615000000     7.875000000
C     4.121000000    -2.900000000     6.590000000
H     5.200000000    -2.776000000     6.547000000
C     3.281000000    -2.017000000     5.885000000
O     3.833000000    -0.850000000     5.431000000
C     3.867000000    -0.411000000     4.167000000
C     3.876000000     0.973000000     3.975000000
H     3.942000000     1.701000000     4.780000000
C     3.775000000     1.471000000     2.682000000
O     3.545000000     2.817000000     2.464000000
C     4.291000000     3.568000000     1.561000000
C     5.686000000     3.642000000     1.761000000
H     6.187000000     3.244000000     2.640000000
C     6.487000000     4.417000000     0.870000000
H     7.570000000     4.339000000     0.896000000
C     5.801000000     5.016000000    -0.160000000
H     6.470000000     5.509000000    -0.861000000
C     4.421000000     4.946000000    -0.416000000
C     3.690000000     4.323000000     0.566000000
H     2.616000000     4.259000000     0.412000000
C    -0.436000000     0.971000000     2.603000000
H    -0.271000000     0.887000000     3.674000000
C    -0.214000000    -0.093000000     1.787000000
H     0.022000000    -1.062000000     2.220000000
C    -0.272000000     0.070000000     0.377000000
H    -0.086000000    -0.818000000    -0.253000000
C    -0.588000000     1.309000000    -0.197000000
H    -0.647000000     1.450000000    -1.273000000
C    -0.838000000     2.349000000     0.684000000
H    -1.075000000     3.307000000     0.228000000
C    -0.814000000     2.158000000     2.087000000
C    -1.184000000     3.267000000     3.038000000
O    -1.470000000     4.393000000     2.604000000
O    -1.188000000     3.205000000     4.298000000
O    -3.289000000     0.710000000     7.184000000
H    -3.638000000     0.120000000     6.516000000
H    -3.618000000     0.357000000     8.010000000
O    -2.834000000     8.056000000     6.925000000
H    -3.506000000     7.409000000     6.709000000
H    -2.614000000     7.876000000     7.839000000
O    -2.825000000     8.305000000    -0.131000000
H    -2.005000000     7.990000000     0.250000000
H    -2.553000000     8.831000000    -0.883000000
O    -7.456000000     3.453000000     2.192000000
H    -6.576000000     3.246000000     2.508000000
H    -7.523000000     4.404000000     2.277000000
O     2.683000000     3.035000000     7.648000000
H     2.895000000     3.758000000     7.058000000
H     2.095000000     2.476000000     7.139000000
O    -6.646000000     2.817000000     5.230000000
H    -7.099000000     2.140000000     4.727000000
H    -6.523000000     2.430000000     6.096000000
O    -0.931000000     6.857000000     1.308000000
H    -0.867000000     7.357000000     2.122000000
H    -0.969000000     5.943000000     1.591000000
O     3.665000000     4.297000000     5.172000000
H     3.390000000     5.213000000     5.211000000
H     3.490000000     4.033000000     4.268000000
O    -3.434000000     3.692000000     6.377000000
H    -3.580000000     2.832000000     6.770000000
H    -2.799000000     3.531000000     5.679000000
O     1.602000000     5.985000000     8.457000000
H     0.848000000     5.435000000     8.241000000
H     1.588000000     6.679000000     7.798000000
O    -1.217000000     2.228000000     7.762000000
H    -1.919000000     1.653000000     7.456000000
H    -0.605000000     2.269000000     7.028000000
O    -4.462000000     7.460000000     1.678000000
H    -4.005000000     6.723000000     2.084000000
H    -3.838000000     7.807000000     1.041000000
O    -2.096000000     7.932000000     4.156000000
H    -1.685000000     8.029000000     5.015000000
H    -2.538000000     7.084000000     4.196000000
O    -0.778000000     4.874000000     8.181000000
H    -1.621000000     5.303000000     8.326000000
H    -0.999000000     3.954000000     8.038000000
O     0.729000000     2.000000000     5.741000000
H     1.569000000     1.898000000     5.293000000
H     0.290000000     2.706000000     5.268000000
O    -3.723000000     5.379000000     3.203000000
H    -2.941000000     4.850000000     3.042000000
H    -3.964000000     5.180000000     4.108000000
O     1.233000000     7.358000000     5.533000000
H     0.621000000     6.649000000     5.337000000
H     2.029000000     7.126000000     5.054000000
O    -4.599000000     6.005000000     6.182000000
H    -5.481000000     5.699000000     5.971000000
H    -4.093000000     5.204000000     6.315000000
O    -0.438000000     5.553000000     5.330000000
H    -0.712000000     5.240000000     6.192000000
H    -0.755000000     4.886000000     4.721000000
