215
-1448.71365
C    -4.772000000     0.730000000    -0.756000000
H    -4.659000000    -0.252000000    -0.303000000
C    -4.072000000     1.063000000    -1.933000000
C    -4.224000000     2.411000000    -2.397000000
H    -3.860000000     2.685000000    -3.384000000
C    -3.215000000     0.057000000    -2.635000000
O    -3.919000000    -1.148000000    -2.712000000
H    -2.268000000    -0.039000000    -2.084000000
O    -2.898000000     0.558000000    -3.913000000
C    -1.640000000     0.396000000    -4.485000000
C    -0.809000000     1.463000000    -4.411000000
H    -1.298000000     2.402000000    -4.164000000
C     0.574000000     1.316000000    -4.686000000
O     1.399000000     2.298000000    -4.330000000
C     1.058000000     0.013000000    -5.049000000
C     2.505000000    -0.435000000    -5.132000000
H     2.603000000    -1.199000000    -5.906000000
C     3.301000000    -0.638000000    -3.890000000
C     3.433000000    -1.905000000    -3.357000000
H     2.943000000    -2.717000000    -3.888000000
H     2.902000000     0.468000000    -5.599000000
C     0.129000000    -0.993000000    -5.125000000
H     0.551000000    -1.984000000    -5.273000000
C    -1.183000000    -0.882000000    -4.811000000
C    -2.010000000    -2.217000000    -4.596000000
H    -1.752000000    -3.049000000    -5.254000000
H    -3.032000000    -1.957000000    -4.881000000
C    -2.094000000    -2.652000000    -3.156000000
C    -1.322000000    -3.782000000    -2.806000000
H    -0.550000000    -4.206000000    -3.442000000
C    -3.174000000    -2.223000000    -2.398000000
C    -3.363000000    -2.794000000    -1.146000000
H    -4.135000000    -2.469000000    -0.454000000
C    -2.483000000    -3.803000000    -0.706000000
O    -2.675000000    -4.129000000     0.615000000
C    -1.742000000    -3.535000000     1.559000000
C    -2.373000000    -3.153000000     2.827000000
C    -1.643000000    -2.947000000     4.046000000
H    -0.588000000    -3.209000000     4.030000000
C    -3.800000000    -2.819000000     2.874000000
H    -4.479000000    -2.908000000     2.030000000
O    -0.678000000    -4.522000000     1.901000000
H    -1.302000000    -2.620000000     1.138000000
C    -1.505000000    -4.331000000    -1.513000000
C    -0.750000000    -5.467000000    -0.968000000
H    -0.410000000    -6.174000000    -1.727000000
H    -1.337000000    -6.085000000    -0.285000000
C     0.495000000    -4.863000000    -0.276000000
C     1.570000000    -4.581000000    -1.058000000
H     1.543000000    -5.024000000    -2.050000000
C     0.508000000    -4.504000000     1.117000000
C     1.516000000    -3.720000000     1.614000000
H     1.518000000    -3.359000000     2.640000000
C     2.543000000    -3.392000000     0.770000000
O     3.602000000    -2.715000000     1.321000000
C     3.681000000    -1.339000000     0.986000000
C     3.882000000    -0.557000000     2.245000000
C     3.444000000    -1.023000000     3.495000000
H     3.059000000    -2.024000000     3.669000000
C     4.490000000     0.711000000     2.158000000
H     4.920000000     1.132000000     1.253000000
O     4.742000000    -1.187000000     0.001000000
H     2.695000000    -1.050000000     0.593000000
C     2.644000000    -3.800000000    -0.609000000
C     3.854000000    -3.552000000    -1.505000000
H     3.869000000    -4.319000000    -2.282000000
H     4.763000000    -3.650000000    -0.906000000
C     3.929000000    -2.182000000    -2.145000000
C     4.385000000    -1.077000000    -1.324000000
C     4.219000000     0.247000000    -1.822000000
H     4.399000000     1.052000000    -1.114000000
C     3.774000000     0.464000000    -3.118000000
O     3.473000000     1.747000000    -3.464000000
C     2.134000000     2.181000000    -3.129000000
H     1.587000000     1.437000000    -2.530000000
C     2.121000000     3.450000000    -2.264000000
C     0.974000000     4.153000000    -2.063000000
H     0.095000000     3.811000000    -2.604000000
C     3.294000000     3.897000000    -1.658000000
H     4.158000000     3.239000000    -1.591000000
C     3.242000000     5.052000000    -0.880000000
O     4.347000000     5.447000000    -0.202000000
C     2.044000000     5.754000000    -0.631000000
H     2.055000000     6.517000000     0.143000000
C     0.860000000     5.318000000    -1.285000000
O    -0.357000000     5.949000000    -0.996000000
C    -1.454000000     6.031000000    -1.847000000
C    -2.616000000     5.345000000    -1.447000000
H    -2.690000000     4.957000000    -0.434000000
C    -1.344000000     6.488000000    -3.126000000
H    -0.465000000     6.980000000    -3.534000000
C    -2.447000000     6.447000000    -4.001000000
H    -2.388000000     6.911000000    -4.982000000
C    -3.644000000     5.918000000    -3.539000000
H    -4.448000000     5.871000000    -4.268000000
C    -3.722000000     5.335000000    -2.284000000
O    -4.901000000     4.730000000    -1.899000000
C    -4.824000000     3.381000000    -1.590000000
C    -5.363000000     3.078000000    -0.291000000
H    -5.871000000     3.818000000     0.323000000
C    -5.386000000     1.758000000     0.069000000
O    -6.194000000     1.517000000     1.166000000
C    -6.596000000     0.280000000     1.618000000
C    -6.067000000    -0.295000000     2.766000000
H    -5.248000000     0.276000000     3.195000000
C    -7.582000000    -0.396000000     0.908000000
H    -8.132000000     0.089000000     0.105000000
C    -7.921000000    -1.719000000     1.309000000
H    -8.527000000    -2.389000000     0.704000000
C    -7.311000000    -2.308000000     2.454000000
H    -7.464000000    -3.353000000     2.711000000
C    -6.370000000    -1.549000000     3.193000000
O    -5.666000000    -2.074000000     4.235000000
C    -4.311000000    -2.287000000     4.064000000
C    -3.545000000    -2.062000000     5.160000000
H    -3.979000000    -1.788000000     6.118000000
C    -2.190000000    -2.316000000     5.149000000
O    -1.449000000    -2.121000000     6.309000000
C    -0.107000000    -2.434000000     6.357000000
C     0.797000000    -1.392000000     6.034000000
H     0.361000000    -0.454000000     5.699000000
C     0.408000000    -3.714000000     6.633000000
H    -0.273000000    -4.530000000     6.861000000
C     1.777000000    -3.894000000     6.755000000
H     2.205000000    -4.878000000     6.926000000
C     2.635000000    -2.860000000     6.533000000
H     3.698000000    -3.070000000     6.622000000
C     2.192000000    -1.636000000     6.100000000
O     3.109000000    -0.604000000     5.861000000
C     3.585000000    -0.212000000     4.604000000
C     4.127000000     1.015000000     4.501000000
H     4.200000000     1.601000000     5.413000000
C     4.693000000     1.449000000     3.343000000
O     5.602000000     2.538000000     3.323000000
C     5.964000000     3.333000000     2.265000000
C     7.262000000     3.516000000     2.017000000
H     7.994000000     3.175000000     2.745000000
C     7.655000000     4.341000000     0.966000000
H     8.716000000     4.437000000     0.750000000
C     6.695000000     5.015000000     0.229000000
H     7.023000000     5.725000000    -0.526000000
C     5.375000000     4.685000000     0.319000000
C     5.026000000     4.007000000     1.497000000
H     3.992000000     4.018000000     1.831000000
C    -0.862000000     0.450000000     2.176000000
H    -1.261000000     0.263000000     3.170000000
C     0.041000000    -0.471000000     1.575000000
H     0.566000000    -1.245000000     2.130000000
C     0.326000000    -0.336000000     0.208000000
H     0.953000000    -0.987000000    -0.309000000
C    -0.250000000     0.745000000    -0.491000000
H    -0.141000000     0.827000000    -1.569000000
C    -1.003000000     1.705000000     0.110000000
H    -1.544000000     2.408000000    -0.519000000
C    -1.314000000     1.532000000     1.466000000
C    -2.196000000     2.617000000     2.125000000
O    -2.336000000     3.624000000     1.481000000
O    -2.714000000     2.406000000     3.241000000
O    -4.261000000     0.561000000     7.830000000
H    -4.959000000    -0.089000000     7.919000000
H    -4.718000000     1.377000000     7.624000000
O    -1.454000000     9.703000000     0.078000000
H    -2.011000000     8.951000000     0.277000000
H    -1.241000000     9.605000000    -0.850000000
O    -0.328000000     7.850000000     4.093000000
H    -0.597000000     7.088000000     3.580000000
H    -0.783000000     8.587000000     3.686000000
O    -4.947000000     2.357000000     4.415000000
H    -5.220000000     3.193000000     4.037000000
H    -4.087000000     2.190000000     4.029000000
O    -7.572000000     0.959000000     5.363000000
H    -7.138000000     0.491000000     6.077000000
H    -6.874000000     1.469000000     4.953000000
O    -4.945000000     3.242000000     7.133000000
H    -4.292000000     3.919000000     7.312000000
H    -4.739000000     2.939000000     6.248000000
O    -3.151000000     7.644000000     1.251000000
H    -3.576000000     6.826000000     1.510000000
H    -2.404000000     7.723000000     1.844000000
O    -2.112000000     1.386000000     5.924000000
H    -2.912000000     1.140000000     6.389000000
H    -2.412000000     1.655000000     5.056000000
O     2.082000000     3.310000000     7.524000000
H     1.970000000     4.097000000     8.058000000
H     1.374000000     3.355000000     6.882000000
O    -6.339000000     4.637000000     3.780000000
H    -6.308000000     5.026000000     4.654000000
H    -7.114000000     5.024000000     3.372000000
O     2.160000000     4.142000000     3.984000000
H     1.884000000     3.846000000     3.116000000
H     1.388000000     4.015000000     4.536000000
O    -5.539000000     7.805000000    -0.391000000
H    -4.688000000     7.369000000    -0.445000000
H    -5.416000000     8.489000000     0.267000000
O    -0.195000000     7.555000000     6.786000000
H    -0.417000000     6.764000000     7.277000000
H    -0.546000000     7.399000000     5.910000000
O    -0.186000000     3.302000000     5.922000000
H    -0.558000000     3.987000000     6.477000000
H    -0.765000000     2.550000000     6.049000000
O    -4.304000000     5.300000000     2.089000000
H    -3.756000000     4.539000000     1.896000000
H    -5.062000000     4.940000000     2.547000000
O    -0.873000000     5.951000000     1.979000000
H    -0.815000000     6.135000000     1.041000000
H    -1.445000000     5.185000000     2.037000000
O    -8.388000000     2.732000000     2.275000000
H    -7.915000000     3.512000000     2.565000000
H    -7.720000000     2.189000000     1.856000000
O    -1.602000000     5.287000000     7.275000000
H    -2.029000000     5.176000000     6.426000000
H    -2.305000000     5.567000000     7.862000000
O    -2.913000000     4.801000000     4.944000000
H    -3.615000000     5.159000000     4.401000000
H    -2.489000000     4.148000000     4.388000000
