215
-1468.92300
C    -5.474000000     0.450000000    -1.705000000
H    -5.615000000    -0.408000000    -1.052000000
C    -4.459000000     0.521000000    -2.623000000
C    -4.346000000     1.668000000    -3.419000000
H    -3.575000000     1.613000000    -4.184000000
C    -3.518000000    -0.626000000    -2.924000000
O    -4.199000000    -1.918000000    -2.742000000
H    -2.723000000    -0.468000000    -2.180000000
O    -2.887000000    -0.599000000    -4.274000000
C    -1.516000000    -0.943000000    -4.362000000
C    -0.569000000     0.106000000    -4.392000000
H    -0.844000000     1.143000000    -4.566000000
C     0.811000000    -0.191000000    -4.411000000
O     1.671000000     0.885000000    -4.388000000
C     1.252000000    -1.519000000    -4.435000000
C     2.720000000    -1.850000000    -4.434000000
H     2.907000000    -2.803000000    -4.934000000
C     3.319000000    -1.808000000    -2.991000000
C     3.230000000    -2.950000000    -2.264000000
H     2.731000000    -3.800000000    -2.723000000
H     3.188000000    -1.033000000    -4.986000000
C     0.323000000    -2.553000000    -4.408000000
H     0.740000000    -3.537000000    -4.606000000
C    -1.077000000    -2.275000000    -4.242000000
C    -2.009000000    -3.484000000    -4.004000000
H    -1.507000000    -4.387000000    -4.357000000
H    -2.829000000    -3.342000000    -4.711000000
C    -2.425000000    -3.557000000    -2.571000000
C    -1.598000000    -4.266000000    -1.667000000
H    -0.804000000    -4.884000000    -2.076000000
C    -3.487000000    -2.825000000    -2.041000000
C    -3.696000000    -2.858000000    -0.630000000
H    -4.426000000    -2.128000000    -0.291000000
C    -2.851000000    -3.540000000     0.262000000
O    -2.908000000    -3.271000000     1.647000000
C    -1.753000000    -2.571000000     2.219000000
C    -2.256000000    -1.446000000     3.155000000
C    -1.508000000    -1.028000000     4.307000000
H    -0.591000000    -1.590000000     4.464000000
C    -3.410000000    -0.670000000     2.845000000
H    -3.986000000    -0.883000000     1.948000000
O    -0.923000000    -3.522000000     2.929000000
H    -1.199000000    -2.066000000     1.414000000
C    -1.872000000    -4.402000000    -0.276000000
C    -1.098000000    -5.332000000     0.637000000
H    -0.813000000    -6.181000000     0.013000000
H    -1.712000000    -5.698000000     1.462000000
C     0.174000000    -4.671000000     1.172000000
C     1.360000000    -4.875000000     0.454000000
H     1.376000000    -5.586000000    -0.368000000
C     0.203000000    -3.857000000     2.300000000
C     1.373000000    -3.369000000     2.758000000
H     1.287000000    -2.785000000     3.671000000
C     2.523000000    -3.422000000     1.981000000
O     3.594000000    -2.727000000     2.438000000
C     3.940000000    -1.510000000     1.743000000
C     4.313000000    -0.375000000     2.742000000
C     3.920000000    -0.472000000     4.036000000
H     3.411000000    -1.347000000     4.430000000
C     4.952000000     0.760000000     2.278000000
H     5.239000000     0.833000000     1.232000000
O     4.968000000    -1.868000000     0.787000000
H     3.042000000    -1.198000000     1.190000000
C     2.530000000    -4.172000000     0.803000000
C     3.757000000    -4.219000000    -0.092000000
H     3.647000000    -5.099000000    -0.729000000
H     4.622000000    -4.382000000     0.553000000
C     3.750000000    -2.983000000    -0.991000000
C     4.424000000    -1.830000000    -0.492000000
C     4.459000000    -0.721000000    -1.220000000
H     4.939000000     0.170000000    -0.822000000
C     3.708000000    -0.635000000    -2.292000000
O     3.516000000     0.615000000    -2.822000000
C     2.174000000     1.136000000    -3.036000000
H     1.523000000     0.593000000    -2.336000000
C     2.059000000     2.577000000    -2.603000000
C     0.888000000     3.264000000    -2.908000000
H     0.112000000     2.756000000    -3.475000000
C     3.023000000     3.227000000    -1.812000000
H     3.861000000     2.615000000    -1.488000000
C     2.805000000     4.506000000    -1.292000000
O     3.639000000     5.069000000    -0.393000000
C     1.686000000     5.196000000    -1.687000000
H     1.512000000     6.185000000    -1.272000000
C     0.745000000     4.570000000    -2.505000000
O    -0.412000000     5.240000000    -2.898000000
C    -1.349000000     4.881000000    -3.828000000
C    -2.664000000     4.717000000    -3.426000000
H    -2.992000000     4.944000000    -2.415000000
C    -1.012000000     4.736000000    -5.227000000
H    -0.010000000     4.965000000    -5.581000000
C    -2.009000000     4.256000000    -6.115000000
H    -1.624000000     4.109000000    -7.121000000
C    -3.269000000     4.004000000    -5.626000000
H    -3.965000000     3.528000000    -6.311000000
C    -3.650000000     4.289000000    -4.324000000
O    -4.903000000     3.986000000    -3.923000000
C    -5.137000000     2.818000000    -3.210000000
C    -6.159000000     2.750000000    -2.296000000
H    -6.870000000     3.537000000    -2.059000000
C    -6.292000000     1.582000000    -1.508000000
O    -7.314000000     1.490000000    -0.564000000
C    -7.096000000     0.925000000     0.608000000
C    -6.028000000     1.281000000     1.384000000
H    -5.353000000     2.074000000     1.075000000
C    -8.044000000     0.049000000     1.144000000
H    -8.958000000    -0.060000000     0.566000000
C    -7.804000000    -0.643000000     2.281000000
H    -8.506000000    -1.401000000     2.618000000
C    -6.783000000    -0.188000000     3.108000000
H    -6.842000000    -0.616000000     4.105000000
C    -5.860000000     0.732000000     2.695000000
O    -4.875000000     1.155000000     3.464000000
C    -3.762000000     0.401000000     3.698000000
C    -2.892000000     0.819000000     4.759000000
H    -3.128000000     1.669000000     5.393000000
C    -1.808000000     0.014000000     5.069000000
O    -0.974000000     0.473000000     6.083000000
C     0.269000000    -0.070000000     6.570000000
C     1.500000000     0.481000000     6.239000000
H     1.554000000     1.325000000     5.556000000
C     0.246000000    -1.238000000     7.335000000
H    -0.718000000    -1.706000000     7.515000000
C     1.478000000    -1.725000000     7.810000000
H     1.519000000    -2.592000000     8.463000000
C     2.705000000    -1.115000000     7.537000000
H     3.576000000    -1.604000000     7.965000000
C     2.677000000    -0.083000000     6.656000000
O     3.871000000     0.526000000     6.244000000
C     4.133000000     0.625000000     4.911000000
C     4.839000000     1.758000000     4.474000000
H     5.094000000     2.566000000     5.155000000
C     5.327000000     1.740000000     3.188000000
O     6.203000000     2.674000000     2.811000000
C     6.169000000     3.297000000     1.571000000
C     7.274000000     3.439000000     0.831000000
H     8.253000000     3.085000000     1.143000000
C     7.158000000     4.224000000    -0.376000000
H     8.048000000     4.446000000    -0.959000000
C     5.956000000     4.763000000    -0.775000000
H     5.864000000     5.292000000    -1.721000000
C     4.853000000     4.599000000     0.003000000
C     4.964000000     3.910000000     1.171000000
H     4.036000000     3.678000000     1.687000000
C    -0.212000000     1.017000000     2.210000000
H    -0.063000000     1.366000000     3.229000000
C     0.630000000     0.058000000     1.732000000
H     1.270000000    -0.409000000     2.475000000
C     0.529000000    -0.404000000     0.377000000
H     1.164000000    -1.238000000     0.138000000
C    -0.278000000     0.218000000    -0.540000000
H    -0.415000000    -0.271000000    -1.501000000
C    -1.103000000     1.235000000    -0.044000000
H    -1.899000000     1.636000000    -0.666000000
C    -1.105000000     1.637000000     1.311000000
C    -1.786000000     2.930000000     1.659000000
O    -2.833000000     3.199000000     1.196000000
O    -1.251000000     3.837000000     2.359000000
O     1.334000000     7.562000000     4.424000000
H     1.156000000     7.659000000     3.488000000
H     1.864000000     6.768000000     4.485000000
O    -4.876000000     4.179000000     2.485000000
H    -4.399000000     4.679000000     3.148000000
H    -4.237000000     3.544000000     2.159000000
O    -5.725000000     8.011000000     1.389000000
H    -6.008000000     7.148000000     1.086000000
H    -6.504000000     8.561000000     1.307000000
O    -6.675000000     3.474000000     4.256000000
H    -6.042000000     3.678000000     3.568000000
H    -6.141000000     3.174000000     4.992000000
O    -0.066000000     3.541000000     4.804000000
H    -0.352000000     4.424000000     5.041000000
H    -0.281000000     3.461000000     3.875000000
O    -2.432000000     7.552000000     2.073000000
H    -2.154000000     7.025000000     1.323000000
H    -3.334000000     7.798000000     1.871000000
O    -0.368000000     2.797000000     8.087000000
H    -0.813000000     3.521000000     8.527000000
H    -0.707000000     2.816000000     7.193000000
O    -6.500000000     5.699000000     0.507000000
H    -5.667000000     5.520000000     0.071000000
H    -6.531000000     5.073000000     1.229000000
O     0.909000000     8.245000000     1.763000000
H     1.078000000     9.096000000     1.360000000
H     0.009000000     8.036000000     1.514000000
O     2.913000000     5.208000000     3.824000000
H     2.249000000     4.746000000     3.314000000
H     3.277000000     5.852000000     3.216000000
O    -3.867000000     5.218000000    -0.199000000
H    -3.590000000     4.419000000     0.249000000
H    -3.095000000     5.784000000    -0.177000000
O    -3.965000000     4.243000000     6.249000000
H    -4.113000000     4.942000000     6.886000000
H    -3.380000000     4.632000000     5.599000000
O    -1.262000000     6.788000000    -0.274000000
H    -0.676000000     6.131000000    -0.650000000
H    -1.428000000     7.399000000    -0.992000000
O     3.272000000     7.049000000     1.901000000
H     2.807000000     6.430000000     1.339000000
H     2.637000000     7.747000000     2.065000000
O     1.197000000     4.538000000     1.628000000
H     1.312000000     3.634000000     1.336000000
H     0.253000000     4.687000000     1.577000000
O    -2.154000000     9.797000000     3.879000000
H    -2.035000000     8.848000000     3.836000000
H    -3.060000000     9.913000000     4.166000000
O    -5.077000000     8.854000000     3.746000000
H    -5.883000000     9.357000000     3.867000000
H    -5.276000000     8.251000000     3.030000000
O    -5.241000000     6.967000000    -2.032000000
H    -4.783000000     7.722000000    -1.663000000
H    -4.924000000     6.222000000    -1.522000000
O    -2.713000000     5.341000000     3.772000000
H    -2.184000000     4.749000000     3.237000000
H    -2.569000000     6.206000000     3.386000000
