215
-1444.84442
C    -1.660000000     0.014000000    -5.196000000
H    -2.112000000    -0.945000000    -5.438000000
C    -0.423000000     0.114000000    -4.546000000
C    -0.042000000     1.403000000    -4.212000000
H     0.835000000     1.605000000    -3.602000000
C     0.440000000    -1.104000000    -4.094000000
O    -0.200000000    -2.311000000    -4.429000000
H     0.454000000    -1.179000000    -2.997000000
O     1.814000000    -1.046000000    -4.560000000
C     2.810000000    -1.349000000    -3.636000000
C     3.549000000    -0.269000000    -3.126000000
H     3.490000000     0.718000000    -3.576000000
C     4.437000000    -0.458000000    -2.090000000
O     5.006000000     0.589000000    -1.475000000
C     4.538000000    -1.723000000    -1.467000000
C     5.402000000    -1.981000000    -0.199000000
H     5.707000000    -3.030000000    -0.184000000
C     4.560000000    -1.696000000     1.050000000
C     3.778000000    -2.702000000     1.775000000
H     3.860000000    -3.740000000     1.462000000
H     6.348000000    -1.440000000    -0.264000000
C     3.789000000    -2.777000000    -1.942000000
H     3.845000000    -3.795000000    -1.564000000
C     2.849000000    -2.594000000    -2.975000000
C     2.167000000    -3.831000000    -3.458000000
H     2.783000000    -4.733000000    -3.437000000
H     2.029000000    -3.645000000    -4.525000000
C     0.749000000    -3.858000000    -2.842000000
C     0.469000000    -4.699000000    -1.741000000
H     1.260000000    -5.246000000    -1.235000000
C    -0.335000000    -3.138000000    -3.382000000
C    -1.562000000    -3.081000000    -2.724000000
H    -2.302000000    -2.421000000    -3.171000000
C    -1.788000000    -3.882000000    -1.621000000
O    -3.026000000    -3.791000000    -0.988000000
C    -3.096000000    -3.057000000     0.281000000
C    -4.197000000    -1.977000000     0.323000000
C    -4.536000000    -1.417000000     1.551000000
H    -4.096000000    -1.762000000     2.483000000
C    -4.682000000    -1.491000000    -0.908000000
H    -4.393000000    -1.978000000    -1.836000000
O    -3.022000000    -4.078000000     1.336000000
H    -2.193000000    -2.431000000     0.223000000
C    -0.752000000    -4.675000000    -1.109000000
C    -0.976000000    -5.567000000     0.168000000
H    -0.289000000    -6.416000000     0.154000000
H    -1.972000000    -6.014000000     0.138000000
C    -0.716000000    -4.852000000     1.410000000
C     0.558000000    -4.745000000     1.969000000
H     1.418000000    -5.323000000     1.642000000
C    -1.780000000    -4.101000000     1.977000000
C    -1.468000000    -3.199000000     2.999000000
H    -2.261000000    -2.566000000     3.389000000
C    -0.187000000    -3.031000000     3.521000000
O     0.015000000    -2.048000000     4.441000000
C     0.647000000    -0.786000000     4.146000000
C     0.097000000     0.398000000     4.854000000
C    -1.162000000     0.308000000     5.393000000
H    -1.784000000    -0.583000000     5.352000000
C     0.889000000     1.579000000     5.011000000
H     1.812000000     1.807000000     4.483000000
O     2.074000000    -0.833000000     4.314000000
H     0.542000000    -0.656000000     3.059000000
C     0.829000000    -3.799000000     3.025000000
C     2.264000000    -3.568000000     3.561000000
H     2.786000000    -4.506000000     3.358000000
H     2.279000000    -3.463000000     4.647000000
C     2.992000000    -2.415000000     2.856000000
C     2.936000000    -1.089000000     3.295000000
C     3.549000000    -0.062000000     2.604000000
H     3.549000000     0.973000000     2.937000000
C     4.338000000    -0.372000000     1.494000000
O     4.873000000     0.701000000     0.856000000
C     4.276000000     1.091000000    -0.370000000
H     3.258000000     0.674000000    -0.378000000
C     4.066000000     2.616000000    -0.454000000
C     4.216000000     3.235000000    -1.731000000
H     4.456000000     2.702000000    -2.647000000
C     3.669000000     3.336000000     0.678000000
H     3.601000000     2.774000000     1.606000000
C     3.311000000     4.662000000     0.501000000
O     2.773000000     5.426000000     1.550000000
C     3.402000000     5.303000000    -0.718000000
H     3.099000000     6.344000000    -0.794000000
C     3.897000000     4.614000000    -1.804000000
O     3.914000000     5.305000000    -3.039000000
C     3.060000000     4.957000000    -4.076000000
C     1.709000000     4.599000000    -3.713000000
H     1.324000000     4.762000000    -2.710000000
C     3.388000000     5.083000000    -5.404000000
H     4.396000000     5.398000000    -5.660000000
C     2.518000000     4.622000000    -6.343000000
H     2.894000000     4.516000000    -7.358000000
C     1.227000000     4.183000000    -6.010000000
H     0.561000000     3.737000000    -6.744000000
C     0.867000000     4.165000000    -4.685000000
O    -0.377000000     3.747000000    -4.348000000
C    -0.859000000     2.509000000    -4.545000000
C    -2.081000000     2.295000000    -5.119000000
H    -2.603000000     3.223000000    -5.335000000
C    -2.461000000     1.096000000    -5.567000000
O    -3.733000000     0.917000000    -6.127000000
C    -4.621000000     0.084000000    -5.423000000
C    -4.985000000     0.373000000    -4.102000000
H    -4.519000000     1.204000000    -3.579000000
C    -5.294000000    -0.934000000    -6.069000000
H    -5.092000000    -1.043000000    -7.132000000
C    -6.141000000    -1.798000000    -5.336000000
H    -6.699000000    -2.659000000    -5.694000000
C    -6.414000000    -1.544000000    -3.975000000
H    -6.966000000    -2.250000000    -3.360000000
C    -5.824000000    -0.431000000    -3.371000000
O    -6.248000000    -0.051000000    -2.103000000
C    -5.684000000    -0.519000000    -0.908000000
C    -6.018000000     0.062000000     0.336000000
H    -6.726000000     0.886000000     0.385000000
C    -5.501000000    -0.448000000     1.517000000
O    -5.744000000     0.246000000     2.686000000
C    -5.214000000    -0.086000000     3.890000000
C    -4.419000000     0.785000000     4.591000000
H    -4.137000000     1.722000000     4.118000000
C    -5.765000000    -1.197000000     4.576000000
H    -6.452000000    -1.876000000     4.078000000
C    -5.343000000    -1.477000000     5.911000000
H    -5.600000000    -2.342000000     6.517000000
C    -4.481000000    -0.583000000     6.580000000
H    -4.031000000    -0.881000000     7.523000000
C    -4.028000000     0.541000000     5.916000000
O    -3.032000000     1.352000000     6.493000000
C    -1.756000000     1.396000000     6.020000000
C    -1.031000000     2.592000000     6.140000000
H    -1.499000000     3.499000000     6.514000000
C     0.270000000     2.665000000     5.631000000
O     0.893000000     3.940000000     5.729000000
C     1.914000000     4.339000000     4.950000000
C     3.045000000     4.788000000     5.722000000
H     3.148000000     4.693000000     6.800000000
C     4.109000000     5.397000000     5.045000000
H     4.980000000     5.736000000     5.600000000
C     4.072000000     5.445000000     3.609000000
H     4.872000000     5.955000000     3.080000000
C     2.944000000     5.028000000     2.874000000
C     1.896000000     4.403000000     3.533000000
H     0.988000000     4.163000000     2.986000000
C    -2.053000000     1.107000000     0.677000000
H    -2.925000000     0.844000000     1.271000000
C    -0.974000000     0.229000000     0.771000000
H    -1.087000000    -0.713000000     1.302000000
C     0.258000000     0.523000000     0.166000000
H     1.129000000    -0.100000000     0.286000000
C     0.406000000     1.640000000    -0.682000000
H     1.319000000     1.865000000    -1.227000000
C    -0.670000000     2.513000000    -0.766000000
H    -0.557000000     3.297000000    -1.510000000
C    -1.974000000     2.282000000    -0.198000000
C    -3.190000000     3.239000000    -0.440000000
O    -3.073000000     4.187000000    -1.169000000
O    -4.209000000     3.092000000     0.192000000
O    -6.040000000     4.132000000     4.213000000
H    -5.873000000     4.323000000     3.290000000
H    -5.438000000     4.704000000     4.689000000
O     0.659000000     7.507000000    -3.283000000
H     0.041000000     7.251000000    -2.598000000
H     0.144000000     7.486000000    -4.089000000
O    -7.860000000     3.197000000    -5.519000000
H    -7.060000000     3.214000000    -6.046000000
H    -7.550000000     3.174000000    -4.614000000
O    -8.452000000     3.421000000     1.491000000
H    -9.080000000     3.964000000     1.967000000
H    -7.986000000     2.939000000     2.175000000
O    -6.918000000     7.147000000     1.100000000
H    -7.745000000     7.455000000     1.469000000
H    -6.880000000     6.220000000     1.337000000
O    -2.097000000     9.352000000    -0.096000000
H    -1.388000000     9.559000000    -0.704000000
H    -2.279000000     8.425000000    -0.246000000
O    -7.401000000     5.091000000    -2.604000000
H    -7.346000000     4.571000000    -1.803000000
H    -8.281000000     4.921000000    -2.940000000
O    -5.317000000     6.877000000     4.587000000
H    -5.044000000     7.210000000     3.733000000
H    -6.264000000     7.018000000     4.608000000
O     0.275000000     6.875000000     0.681000000
H     0.040000000     7.365000000     1.469000000
H     1.047000000     6.369000000     0.935000000
O    -1.541000000     7.568000000     3.041000000
H    -1.550000000     6.618000000     2.930000000
H    -2.080000000     7.724000000     3.817000000
O    -4.820000000     3.860000000    -6.212000000
H    -4.695000000     4.101000000    -5.294000000
H    -4.099000000     4.290000000    -6.673000000
O    -1.689000000     4.816000000     2.660000000
H    -1.075000000     4.118000000     2.886000000
H    -2.352000000     4.386000000     2.120000000
O    -1.356000000     6.379000000    -1.569000000
H    -0.807000000     6.477000000    -0.791000000
H    -2.066000000     5.801000000    -1.289000000
O    -4.556000000     4.543000000    -3.565000000
H    -4.004000000     4.178000000    -2.874000000
H    -5.433000000     4.571000000    -3.181000000
O    -6.704000000     3.250000000    -0.817000000
H    -7.106000000     3.404000000     0.038000000
H    -5.821000000     2.940000000    -0.614000000
O    -5.125000000     9.058000000    -0.087000000
H    -5.250000000     9.214000000    -1.023000000
H    -5.021000000     8.109000000    -0.014000000
O    -4.542000000     6.327000000    -0.743000000
H    -5.423000000     6.298000000    -1.116000000
H    -4.157000000     5.480000000    -0.969000000
O    -2.681000000     7.319000000    -4.179000000
H    -3.600000000     7.563000000    -4.068000000
H    -2.457000000     6.854000000    -3.373000000
O    -4.884000000     4.849000000     1.875000000
H    -4.747000000     4.145000000     1.241000000
H    -4.743000000     5.653000000     1.375000000
