215
-1485.58553
C    -4.460000000     0.508000000    -0.613000000
H    -4.390000000    -0.311000000     0.099000000
C    -3.826000000     0.405000000    -1.827000000
C    -3.714000000     1.568000000    -2.605000000
H    -3.113000000     1.468000000    -3.505000000
C    -3.048000000    -0.898000000    -2.200000000
O    -3.859000000    -2.105000000    -1.844000000
H    -2.087000000    -0.909000000    -1.665000000
O    -2.780000000    -0.836000000    -3.610000000
C    -1.469000000    -1.167000000    -4.055000000
C    -0.592000000    -0.191000000    -4.409000000
H    -0.972000000     0.806000000    -4.613000000
C     0.771000000    -0.426000000    -4.488000000
O     1.603000000     0.601000000    -4.691000000
C     1.278000000    -1.692000000    -4.198000000
C     2.782000000    -1.928000000    -4.295000000
H     2.989000000    -2.931000000    -4.674000000
C     3.559000000    -1.659000000    -2.911000000
C     3.923000000    -2.718000000    -2.105000000
H     3.849000000    -3.760000000    -2.408000000
H     3.111000000    -1.228000000    -5.066000000
C     0.383000000    -2.742000000    -3.916000000
H     0.796000000    -3.737000000    -3.766000000
C    -0.980000000    -2.496000000    -3.819000000
C    -1.935000000    -3.601000000    -3.574000000
H    -1.557000000    -4.528000000    -4.009000000
H    -2.862000000    -3.426000000    -4.125000000
C    -2.074000000    -3.906000000    -2.072000000
C    -1.239000000    -4.804000000    -1.409000000
H    -0.400000000    -5.299000000    -1.891000000
C    -3.122000000    -3.184000000    -1.318000000
C    -3.329000000    -3.416000000     0.027000000
H    -3.997000000    -2.833000000     0.654000000
C    -2.398000000    -4.315000000     0.660000000
O    -2.411000000    -4.338000000     2.038000000
C    -1.697000000    -3.313000000     2.695000000
C    -2.313000000    -2.584000000     3.790000000
C    -1.561000000    -1.831000000     4.724000000
H    -0.477000000    -1.849000000     4.797000000
C    -3.704000000    -2.474000000     3.791000000
H    -4.372000000    -2.922000000     3.060000000
O    -0.466000000    -3.975000000     3.110000000
H    -1.442000000    -2.531000000     1.964000000
C    -1.286000000    -4.865000000     0.001000000
C    -0.181000000    -5.652000000     0.724000000
H     0.254000000    -6.458000000     0.131000000
H    -0.560000000    -6.156000000     1.615000000
C     0.914000000    -4.716000000     1.180000000
C     2.143000000    -4.572000000     0.465000000
H     2.311000000    -5.127000000    -0.455000000
C     0.692000000    -3.901000000     2.294000000
C     1.756000000    -3.112000000     2.703000000
H     1.549000000    -2.463000000     3.550000000
C     2.994000000    -3.092000000     2.085000000
O     3.826000000    -2.136000000     2.597000000
C     3.769000000    -0.876000000     1.773000000
C     3.844000000     0.429000000     2.569000000
C     3.444000000     0.436000000     3.882000000
H     3.219000000    -0.483000000     4.418000000
C     4.293000000     1.614000000     1.996000000
H     4.573000000     1.623000000     0.945000000
O     4.909000000    -0.854000000     0.839000000
H     2.841000000    -0.932000000     1.185000000
C     3.167000000    -3.763000000     0.902000000
C     4.507000000    -3.613000000     0.187000000
H     4.841000000    -4.524000000    -0.313000000
H     5.272000000    -3.283000000     0.892000000
C     4.377000000    -2.507000000    -0.818000000
C     4.592000000    -1.201000000    -0.426000000
C     4.282000000    -0.143000000    -1.244000000
H     4.480000000     0.840000000    -0.823000000
C     3.636000000    -0.339000000    -2.477000000
O     3.276000000     0.861000000    -3.095000000
C     1.968000000     1.272000000    -3.556000000
H     1.307000000     0.863000000    -2.778000000
C     1.895000000     2.778000000    -3.575000000
C     0.945000000     3.386000000    -4.441000000
H     0.202000000     2.795000000    -4.970000000
C     2.769000000     3.566000000    -2.856000000
H     3.399000000     3.059000000    -2.130000000
C     2.724000000     4.932000000    -2.994000000
O     3.469000000     5.688000000    -2.159000000
C     1.711000000     5.578000000    -3.793000000
H     1.687000000     6.664000000    -3.812000000
C     0.834000000     4.736000000    -4.470000000
O    -0.095000000     5.337000000    -5.293000000
C    -1.400000000     4.853000000    -5.328000000
C    -2.085000000     4.555000000    -4.154000000
H    -1.595000000     4.796000000    -3.213000000
C    -1.902000000     4.519000000    -6.573000000
H    -1.362000000     4.800000000    -7.474000000
C    -3.132000000     3.854000000    -6.601000000
H    -3.590000000     3.647000000    -7.565000000
C    -3.892000000     3.711000000    -5.471000000
H    -4.885000000     3.285000000    -5.587000000
C    -3.385000000     4.023000000    -4.216000000
O    -4.185000000     3.946000000    -3.032000000
C    -4.325000000     2.815000000    -2.251000000
C    -5.018000000     2.839000000    -1.054000000
H    -5.526000000     3.718000000    -0.667000000
C    -5.081000000     1.674000000    -0.270000000
O    -5.647000000     1.811000000     0.982000000
C    -6.290000000     0.864000000     1.710000000
C    -5.672000000     0.207000000     2.754000000
H    -4.730000000     0.615000000     3.113000000
C    -7.483000000     0.423000000     1.245000000
H    -7.910000000     0.848000000     0.340000000
C    -8.175000000    -0.557000000     1.961000000
H    -9.129000000    -0.842000000     1.524000000
C    -7.579000000    -1.216000000     3.024000000
H    -8.208000000    -1.808000000     3.684000000
C    -6.336000000    -0.750000000     3.467000000
O    -5.737000000    -1.273000000     4.607000000
C    -4.362000000    -1.569000000     4.656000000
C    -3.600000000    -0.894000000     5.583000000
H    -4.190000000    -0.261000000     6.240000000
C    -2.216000000    -1.023000000     5.622000000
O    -1.575000000    -0.332000000     6.617000000
C    -0.233000000    -0.353000000     6.846000000
C     0.606000000     0.672000000     6.307000000
H     0.183000000     1.538000000     5.803000000
C     0.336000000    -1.470000000     7.463000000
H    -0.324000000    -2.277000000     7.771000000
C     1.703000000    -1.619000000     7.502000000
H     2.106000000    -2.540000000     7.917000000
C     2.561000000    -0.614000000     7.016000000
H     3.601000000    -0.786000000     7.279000000
C     2.002000000     0.539000000     6.400000000
O     2.820000000     1.611000000     5.854000000
C     3.288000000     1.630000000     4.584000000
C     3.641000000     2.857000000     3.970000000
H     3.488000000     3.811000000     4.469000000
C     4.162000000     2.826000000     2.665000000
O     4.529000000     4.065000000     2.182000000
C     5.014000000     4.446000000     0.916000000
C     6.373000000     4.405000000     0.573000000
H     7.068000000     4.132000000     1.363000000
C     6.843000000     4.840000000    -0.694000000
H     7.897000000     4.859000000    -0.960000000
C     5.834000000     5.242000000    -1.624000000
H     6.267000000     5.583000000    -2.561000000
C     4.427000000     5.281000000    -1.283000000
C     4.026000000     4.916000000     0.044000000
H     2.983000000     5.000000000     0.341000000
C    -0.435000000     0.949000000     2.583000000
H    -0.395000000     1.038000000     3.665000000
C     0.353000000    -0.034000000     1.960000000
H     1.006000000    -0.729000000     2.481000000
C     0.265000000    -0.212000000     0.553000000
H     0.750000000    -0.985000000    -0.028000000
C    -0.529000000     0.651000000    -0.204000000
H    -0.502000000     0.614000000    -1.290000000
C    -1.207000000     1.674000000     0.483000000
H    -1.823000000     2.418000000    -0.016000000
C    -1.250000000     1.798000000     1.885000000
C    -2.122000000     2.796000000     2.593000000
O    -2.466000000     3.796000000     2.017000000
O    -2.384000000     2.708000000     3.775000000
O    -0.394000000     3.908000000     5.262000000
H    -1.048000000     3.613000000     4.628000000
H    -0.895000000     4.083000000     6.059000000
O    -2.044000000     4.563000000     7.286000000
H    -2.516000000     3.822000000     6.907000000
H    -2.719000000     5.224000000     7.439000000
O     0.043000000     6.166000000     7.112000000
H     0.160000000     5.298000000     6.725000000
H    -0.874000000     6.184000000     7.386000000
O    -2.565000000     1.121000000     8.769000000
H    -2.444000000     1.174000000     7.821000000
H    -3.491000000     1.326000000     8.904000000
O     3.045000000     6.743000000     2.731000000
H     2.234000000     6.244000000     2.825000000
H     3.655000000     6.134000000     2.314000000
O     0.156000000     4.724000000    -0.908000000
H    -0.687000000     4.889000000    -0.486000000
H     0.464000000     5.590000000    -1.175000000
O    -3.087000000     8.104000000     1.021000000
H    -2.738000000     7.835000000     1.870000000
H    -2.356000000     8.547000000     0.591000000
O     0.904000000     4.960000000     3.024000000
H     0.990000000     4.328000000     2.311000000
H     1.072000000     4.450000000     3.817000000
O    -2.384000000     8.510000000     4.113000000
H    -1.676000000     8.796000000     4.691000000
H    -2.110000000     7.644000000     3.809000000
O     1.579000000     2.832000000     1.056000000
H     1.338000000     1.909000000     0.971000000
H     1.297000000     3.230000000     0.232000000
O    -5.075000000     4.328000000     3.062000000
H    -4.216000000     3.977000000     2.826000000
H    -4.917000000     5.258000000     3.227000000
O    -3.806000000     2.722000000     6.146000000
H    -4.556000000     3.254000000     5.880000000
H    -3.348000000     2.527000000     5.328000000
O    -2.491000000     5.379000000    -0.093000000
H    -2.673000000     4.765000000     0.619000000
H    -2.488000000     6.239000000     0.328000000
O    -6.113000000     1.227000000     7.020000000
H    -5.176000000     1.419000000     6.980000000
H    -6.520000000     1.913000000     6.491000000
O    -1.546000000     6.193000000     2.857000000
H    -0.623000000     6.006000000     3.028000000
H    -1.927000000     5.341000000     2.643000000
O    -4.937000000     6.936000000     4.083000000
H    -5.527000000     7.038000000     4.829000000
H    -4.222000000     7.547000000     4.258000000
O    -5.736000000     7.285000000     1.095000000
H    -5.683000000     7.085000000     2.030000000
H    -4.854000000     7.575000000     0.862000000
O    -6.612000000     3.098000000     5.300000000
H    -6.317000000     3.447000000     4.459000000
H    -7.332000000     3.673000000     5.559000000
O    -7.430000000     4.519000000     1.251000000
H    -6.616000000     4.036000000     1.393000000
H    -7.194000000     5.435000000     1.395000000
