215
-1445.34346
C    -1.635000000     0.073000000    -4.606000000
H    -2.181000000    -0.793000000    -4.239000000
C    -0.241000000     0.021000000    -4.714000000
C     0.443000000     1.090000000    -5.234000000
H     1.521000000     1.039000000    -5.356000000
C     0.583000000    -1.183000000    -4.139000000
O    -0.092000000    -2.452000000    -4.272000000
H     0.633000000    -1.073000000    -3.045000000
O     1.941000000    -1.280000000    -4.552000000
C     2.838000000    -1.445000000    -3.503000000
C     3.390000000    -0.290000000    -3.065000000
H     3.277000000     0.688000000    -3.525000000
C     4.181000000    -0.345000000    -1.975000000
O     4.613000000     0.779000000    -1.450000000
C     4.428000000    -1.583000000    -1.272000000
C     5.249000000    -1.590000000    -0.021000000
H     5.800000000    -2.522000000     0.119000000
C     4.430000000    -1.374000000     1.236000000
C     3.997000000    -2.435000000     2.060000000
H     4.389000000    -3.431000000     1.866000000
H     6.018000000    -0.817000000    -0.078000000
C     3.827000000    -2.770000000    -1.656000000
H     3.948000000    -3.692000000    -1.094000000
C     3.041000000    -2.666000000    -2.869000000
C     2.348000000    -3.934000000    -3.390000000
H     2.881000000    -4.854000000    -3.143000000
H     2.092000000    -3.917000000    -4.452000000
C     1.042000000    -3.938000000    -2.661000000
C     0.909000000    -4.633000000    -1.468000000
H     1.797000000    -5.190000000    -1.180000000
C    -0.084000000    -3.270000000    -3.129000000
C    -1.308000000    -3.463000000    -2.453000000
H    -2.209000000    -2.981000000    -2.822000000
C    -1.432000000    -4.220000000    -1.336000000
O    -2.670000000    -4.182000000    -0.728000000
C    -2.696000000    -3.193000000     0.321000000
C    -4.072000000    -2.449000000     0.262000000
C    -4.478000000    -1.892000000     1.526000000
H    -3.947000000    -2.101000000     2.451000000
C    -4.810000000    -2.216000000    -0.884000000
H    -4.562000000    -2.704000000    -1.824000000
O    -2.524000000    -3.856000000     1.594000000
H    -1.898000000    -2.452000000     0.166000000
C    -0.299000000    -4.843000000    -0.803000000
C    -0.323000000    -5.624000000     0.494000000
H     0.638000000    -6.141000000     0.474000000
H    -1.205000000    -6.262000000     0.584000000
C    -0.227000000    -4.737000000     1.743000000
C     0.978000000    -4.618000000     2.422000000
H     1.779000000    -5.261000000     2.068000000
C    -1.258000000    -3.900000000     2.130000000
C    -1.167000000    -3.062000000     3.214000000
H    -2.075000000    -2.570000000     3.554000000
C     0.024000000    -2.979000000     3.986000000
O     0.072000000    -1.992000000     4.855000000
C     0.570000000    -0.756000000     4.286000000
C    -0.068000000     0.537000000     4.854000000
C    -1.416000000     0.534000000     5.214000000
H    -2.052000000    -0.347000000     5.195000000
C     0.683000000     1.705000000     5.120000000
H     1.730000000     1.666000000     4.828000000
O     1.977000000    -0.652000000     4.434000000
H     0.292000000    -0.814000000     3.224000000
C     1.160000000    -3.660000000     3.420000000
C     2.573000000    -3.379000000     3.878000000
H     3.265000000    -4.223000000     3.840000000
H     2.524000000    -3.168000000     4.949000000
C     3.140000000    -2.181000000     3.085000000
C     2.839000000    -0.886000000     3.471000000
C     3.229000000     0.241000000     2.658000000
H     2.824000000     1.231000000     2.853000000
C     4.081000000    -0.052000000     1.629000000
O     4.393000000     1.038000000     0.842000000
C     3.811000000     1.238000000    -0.418000000
H     2.848000000     0.714000000    -0.329000000
C     3.397000000     2.699000000    -0.603000000
C     3.614000000     3.400000000    -1.781000000
H     4.181000000     2.899000000    -2.561000000
C     2.765000000     3.353000000     0.524000000
H     2.618000000     2.868000000     1.486000000
C     2.410000000     4.723000000     0.421000000
O     1.849000000     5.381000000     1.399000000
C     2.549000000     5.350000000    -0.792000000
H     2.084000000     6.327000000    -0.892000000
C     3.164000000     4.682000000    -1.878000000
O     3.254000000     5.353000000    -3.068000000
C     2.974000000     4.851000000    -4.377000000
C     1.771000000     4.263000000    -4.647000000
H     1.022000000     4.068000000    -3.884000000
C     3.976000000     4.962000000    -5.359000000
H     4.925000000     5.446000000    -5.142000000
C     3.798000000     4.355000000    -6.599000000
H     4.570000000     4.366000000    -7.364000000
C     2.615000000     3.738000000    -6.854000000
H     2.463000000     3.276000000    -7.826000000
C     1.584000000     3.745000000    -5.932000000
O     0.342000000     3.252000000    -6.413000000
C    -0.275000000     2.179000000    -5.702000000
C    -1.605000000     2.176000000    -5.679000000
H    -2.142000000     2.956000000    -6.213000000
C    -2.332000000     1.134000000    -5.135000000
O    -3.671000000     1.237000000    -5.066000000
C    -4.530000000     0.214000000    -4.802000000
C    -5.017000000    -0.003000000    -3.551000000
H    -4.776000000     0.684000000    -2.744000000
C    -5.028000000    -0.493000000    -5.884000000
H    -4.657000000    -0.215000000    -6.867000000
C    -6.010000000    -1.452000000    -5.708000000
H    -6.358000000    -1.991000000    -6.586000000
C    -6.503000000    -1.706000000    -4.458000000
H    -7.317000000    -2.412000000    -4.314000000
C    -5.974000000    -1.001000000    -3.351000000
O    -6.568000000    -1.121000000    -2.050000000
C    -5.840000000    -1.301000000    -0.905000000
C    -6.266000000    -0.736000000     0.304000000
H    -7.081000000    -0.022000000     0.220000000
C    -5.657000000    -1.052000000     1.532000000
O    -6.106000000    -0.451000000     2.688000000
C    -5.483000000    -0.417000000     3.955000000
C    -4.638000000     0.639000000     4.332000000
H    -4.271000000     1.369000000     3.615000000
C    -5.946000000    -1.296000000     4.984000000
H    -6.643000000    -2.073000000     4.680000000
C    -5.651000000    -1.021000000     6.338000000
H    -5.946000000    -1.710000000     7.125000000
C    -4.693000000    -0.104000000     6.660000000
H    -4.371000000     0.019000000     7.691000000
C    -4.202000000     0.749000000     5.633000000
O    -3.357000000     1.763000000     6.013000000
C    -2.018000000     1.720000000     5.680000000
C    -1.280000000     2.871000000     5.957000000
H    -1.678000000     3.788000000     6.383000000
C     0.043000000     2.893000000     5.621000000
O     0.753000000     4.029000000     5.928000000
C     1.557000000     4.751000000     5.052000000
C     2.725000000     5.271000000     5.581000000
H     2.882000000     5.287000000     6.657000000
C     3.701000000     5.834000000     4.740000000
H     4.686000000     6.220000000     4.989000000
C     3.401000000     5.782000000     3.320000000
H     4.155000000     6.030000000     2.577000000
C     2.194000000     5.263000000     2.740000000
C     1.336000000     4.737000000     3.642000000
H     0.384000000     4.338000000     3.304000000
C    -2.589000000     0.807000000    -0.150000000
H    -3.606000000     0.805000000     0.231000000
C    -1.599000000     0.050000000     0.453000000
H    -1.872000000    -0.580000000     1.296000000
C    -0.349000000    -0.033000000    -0.138000000
H     0.364000000    -0.629000000     0.460000000
C    -0.007000000     0.767000000    -1.210000000
H     0.925000000     0.558000000    -1.728000000
C    -0.963000000     1.586000000    -1.791000000
H    -0.601000000     2.097000000    -2.680000000
C    -2.201000000     1.695000000    -1.208000000
C    -3.262000000     2.535000000    -1.806000000
O    -3.011000000     3.341000000    -2.649000000
O    -4.379000000     2.652000000    -1.215000000
O    -8.415000000     2.567000000    -4.193000000
H    -8.791000000     3.420000000    -4.410000000
H    -7.986000000     2.702000000    -3.348000000
O    -4.545000000     7.841000000    -2.912000000
H    -4.522000000     7.042000000    -2.385000000
H    -4.761000000     7.540000000    -3.794000000
O    -8.975000000     0.131000000    -2.905000000
H    -9.070000000     0.875000000    -3.500000000
H    -8.062000000     0.169000000    -2.619000000
O    -1.218000000     8.283000000    -1.183000000
H    -0.892000000     8.333000000    -0.284000000
H    -1.075000000     7.372000000    -1.439000000
O    -7.510000000     1.250000000    -7.331000000
H    -6.804000000     1.346000000    -7.971000000
H    -7.176000000     1.675000000    -6.541000000
O    -9.345000000     1.556000000     0.630000000
H   -10.059000000     2.079000000     0.264000000
H    -8.602000000     2.158000000     0.666000000
O    -7.808000000     3.818000000     0.779000000
H    -7.332000000     3.818000000     1.609000000
H    -8.438000000     4.535000000     0.864000000
O    -7.759000000     5.771000000    -3.219000000
H    -7.438000000     4.941000000    -2.868000000
H    -8.401000000     5.518000000    -3.883000000
O    -1.454000000     5.716000000     0.112000000
H    -1.621000000     4.863000000     0.514000000
H    -1.337000000     6.311000000     0.852000000
O    -1.968000000     5.373000000     3.632000000
H    -2.056000000     4.473000000     3.315000000
H    -2.829000000     5.585000000     3.993000000
O    -6.644000000     5.243000000    -6.725000000
H    -6.245000000     4.922000000    -5.916000000
H    -6.088000000     4.893000000    -7.421000000
O    -2.043000000     3.071000000     2.006000000
H    -1.789000000     2.242000000     1.601000000
H    -2.992000000     3.115000000     1.886000000
O    -1.234000000     5.514000000    -2.541000000
H    -1.049000000     5.506000000    -1.602000000
H    -1.932000000     4.869000000    -2.653000000
O    -4.701000000     4.561000000    -4.122000000
H    -3.984000000     3.991000000    -3.844000000
H    -5.149000000     4.794000000    -3.309000000
O    -6.846000000     3.400000000    -1.795000000
H    -7.146000000     3.449000000    -0.888000000
H    -5.963000000     3.035000000    -1.737000000
O    -6.728000000     3.309000000     3.181000000
H    -6.077000000     2.978000000     3.800000000
H    -7.568000000     3.171000000     3.619000000
O    -4.119000000     5.742000000    -0.999000000
H    -3.242000000     5.876000000    -0.640000000
H    -4.179000000     4.797000000    -1.139000000
O    -2.041000000     6.002000000    -5.310000000
H    -2.640000000     5.286000000    -5.094000000
H    -1.742000000     6.328000000    -4.462000000
O    -4.762000000     3.125000000     1.399000000
H    -4.956000000     3.183000000     0.463000000
H    -5.621000000     3.096000000     1.819000000
