215
-1455.43304
C    -4.740000000     0.278000000    -1.550000000
H    -4.818000000    -0.535000000    -0.833000000
C    -3.959000000     0.126000000    -2.669000000
C    -3.941000000     1.191000000    -3.561000000
H    -3.202000000     1.067000000    -4.349000000
C    -3.025000000    -1.021000000    -2.849000000
O    -3.591000000    -2.246000000    -2.402000000
H    -2.108000000    -0.869000000    -2.262000000
O    -2.692000000    -1.301000000    -4.253000000
C    -1.339000000    -1.451000000    -4.446000000
C    -0.557000000    -0.300000000    -4.730000000
H    -0.994000000     0.692000000    -4.819000000
C     0.802000000    -0.375000000    -4.677000000
O     1.516000000     0.790000000    -4.621000000
C     1.491000000    -1.580000000    -4.539000000
C     2.976000000    -1.719000000    -4.408000000
H     3.261000000    -2.717000000    -4.750000000
C     3.482000000    -1.589000000    -2.973000000
C     3.529000000    -2.637000000    -2.041000000
H     3.224000000    -3.610000000    -2.416000000
H     3.441000000    -0.984000000    -5.068000000
C     0.767000000    -2.640000000    -4.239000000
H     1.288000000    -3.590000000    -4.155000000
C    -0.648000000    -2.626000000    -4.160000000
C    -1.402000000    -3.857000000    -3.700000000
H    -0.727000000    -4.676000000    -3.958000000
H    -2.273000000    -3.898000000    -4.357000000
C    -1.855000000    -3.913000000    -2.247000000
C    -1.170000000    -4.830000000    -1.412000000
H    -0.414000000    -5.472000000    -1.858000000
C    -2.798000000    -3.125000000    -1.633000000
C    -3.266000000    -3.355000000    -0.352000000
H    -4.003000000    -2.783000000     0.206000000
C    -2.446000000    -4.149000000     0.437000000
O    -2.546000000    -4.057000000     1.786000000
C    -1.680000000    -3.187000000     2.539000000
C    -2.396000000    -2.288000000     3.653000000
C    -1.733000000    -1.830000000     4.811000000
H    -0.704000000    -2.091000000     5.043000000
C    -3.788000000    -1.988000000     3.505000000
H    -4.343000000    -2.356000000     2.646000000
O    -0.646000000    -3.837000000     3.240000000
H    -1.221000000    -2.499000000     1.813000000
C    -1.356000000    -4.848000000    -0.061000000
C    -0.465000000    -5.649000000     0.823000000
H    -0.082000000    -6.594000000     0.433000000
H    -1.035000000    -6.055000000     1.661000000
C     0.709000000    -4.805000000     1.407000000
C     1.889000000    -4.745000000     0.677000000
H     2.023000000    -5.197000000    -0.302000000
C     0.577000000    -4.062000000     2.586000000
C     1.590000000    -3.268000000     3.047000000
H     1.382000000    -2.640000000     3.909000000
C     2.762000000    -3.131000000     2.320000000
O     3.654000000    -2.141000000     2.656000000
C     3.603000000    -0.862000000     1.967000000
C     3.713000000     0.328000000     2.934000000
C     2.864000000     0.394000000     4.076000000
H     2.191000000    -0.417000000     4.344000000
C     4.477000000     1.424000000     2.588000000
H     5.131000000     1.457000000     1.720000000
O     4.661000000    -0.848000000     1.003000000
H     2.602000000    -0.711000000     1.535000000
C     2.881000000    -3.814000000     1.091000000
C     4.058000000    -3.570000000     0.217000000
H     4.328000000    -4.434000000    -0.393000000
H     4.924000000    -3.387000000     0.856000000
C     3.996000000    -2.399000000    -0.720000000
C     4.313000000    -1.119000000    -0.295000000
C     4.178000000    -0.070000000    -1.191000000
H     4.499000000     0.930000000    -0.911000000
C     3.734000000    -0.256000000    -2.501000000
O     3.505000000     0.794000000    -3.352000000
C     2.165000000     1.255000000    -3.431000000
H     1.655000000     0.768000000    -2.587000000
C     2.081000000     2.798000000    -3.248000000
C     0.958000000     3.484000000    -3.791000000
H     0.239000000     3.029000000    -4.467000000
C     3.084000000     3.456000000    -2.503000000
H     3.901000000     2.867000000    -2.093000000
C     2.883000000     4.808000000    -2.233000000
O     3.646000000     5.423000000    -1.236000000
C     1.801000000     5.509000000    -2.755000000
H     1.665000000     6.575000000    -2.594000000
C     0.873000000     4.886000000    -3.590000000
O    -0.174000000     5.677000000    -3.986000000
C    -1.261000000     5.145000000    -4.643000000
C    -2.370000000     4.655000000    -3.947000000
H    -2.358000000     4.724000000    -2.862000000
C    -1.127000000     5.214000000    -6.010000000
H    -0.225000000     5.607000000    -6.473000000
C    -2.189000000     4.722000000    -6.801000000
H    -2.150000000     4.779000000    -7.885000000
C    -3.229000000     4.106000000    -6.084000000
H    -4.004000000     3.648000000    -6.693000000
C    -3.353000000     4.030000000    -4.704000000
O    -4.459000000     3.459000000    -4.107000000
C    -4.507000000     2.418000000    -3.230000000
C    -5.244000000     2.588000000    -2.064000000
H    -5.533000000     3.559000000    -1.669000000
C    -5.327000000     1.467000000    -1.232000000
O    -5.970000000     1.740000000     0.010000000
C    -6.413000000     0.707000000     0.803000000
C    -5.736000000     0.522000000     2.019000000
H    -4.782000000     1.013000000     2.188000000
C    -7.522000000     0.013000000     0.359000000
H    -8.010000000     0.314000000    -0.564000000
C    -8.114000000    -0.754000000     1.325000000
H    -9.100000000    -1.182000000     1.165000000
C    -7.495000000    -1.026000000     2.533000000
H    -7.852000000    -1.689000000     3.317000000
C    -6.280000000    -0.459000000     2.918000000
O    -5.795000000    -0.753000000     4.229000000
C    -4.512000000    -1.182000000     4.399000000
C    -3.848000000    -0.783000000     5.593000000
H    -4.369000000    -0.211000000     6.356000000
C    -2.466000000    -1.039000000     5.723000000
O    -1.958000000    -0.608000000     6.948000000
C    -0.626000000    -0.435000000     7.075000000
C     0.015000000     0.588000000     6.384000000
H    -0.543000000     1.194000000     5.674000000
C     0.142000000    -1.223000000     7.986000000
H    -0.377000000    -2.018000000     8.515000000
C     1.479000000    -1.011000000     8.021000000
H     2.112000000    -1.626000000     8.655000000
C     2.132000000    -0.101000000     7.231000000
H     3.218000000    -0.094000000     7.192000000
C     1.375000000     0.742000000     6.439000000
O     1.987000000     1.807000000     5.812000000
C     2.853000000     1.592000000     4.795000000
C     3.814000000     2.559000000     4.489000000
H     3.886000000     3.453000000     5.104000000
C     4.484000000     2.532000000     3.332000000
O     5.254000000     3.676000000     2.959000000
C     5.459000000     4.053000000     1.623000000
C     6.798000000     3.926000000     1.134000000
H     7.603000000     3.621000000     1.798000000
C     7.024000000     4.519000000    -0.137000000
H     8.005000000     4.586000000    -0.600000000
C     5.982000000     4.821000000    -0.984000000
H     6.170000000     5.364000000    -1.907000000
C     4.676000000     4.847000000    -0.524000000
C     4.385000000     4.388000000     0.818000000
H     3.400000000     4.482000000     1.269000000
C    -0.596000000     1.526000000     2.551000000
H    -0.481000000     1.850000000     3.583000000
C    -0.188000000     0.165000000     2.212000000
H     0.209000000    -0.519000000     2.957000000
C    -0.213000000    -0.218000000     0.879000000
H     0.182000000    -1.247000000     0.601000000
C    -0.704000000     0.608000000    -0.149000000
H    -0.714000000     0.259000000    -1.178000000
C    -1.218000000     1.885000000     0.248000000
H    -1.647000000     2.496000000    -0.542000000
C    -1.213000000     2.330000000     1.556000000
C    -1.997000000     3.571000000     2.013000000
O    -2.402000000     4.364000000     1.179000000
O    -2.243000000     3.817000000     3.185000000
O    -0.841000000     5.401000000     4.759000000
H    -1.291000000     4.754000000     4.217000000
H    -1.335000000     6.210000000     4.627000000
O     0.468000000     5.946000000     7.471000000
H     0.144000000     5.832000000     6.577000000
H     1.185000000     5.316000000     7.548000000
O    -5.964000000     6.535000000     0.954000000
H    -6.199000000     7.162000000     1.638000000
H    -6.802000000     6.276000000     0.569000000
O    -3.620000000     1.535000000     8.256000000
H    -3.248000000     1.884000000     7.446000000
H    -3.952000000     2.305000000     8.718000000
O     4.098000000     6.512000000     4.139000000
H     3.185000000     6.248000000     4.030000000
H     4.454000000     5.887000000     4.771000000
O    -3.355000000     8.079000000    -0.183000000
H    -3.899000000     7.311000000    -0.355000000
H    -3.247000000     8.493000000    -1.039000000
O     1.605000000     5.905000000     3.325000000
H     0.787000000     5.864000000     3.821000000
H     1.621000000     5.091000000     2.822000000
O    -1.874000000     6.845000000     1.513000000
H    -1.955000000     5.899000000     1.391000000
H    -2.425000000     7.223000000     0.828000000
O    -4.623000000     5.048000000     3.222000000
H    -3.810000000     4.560000000     3.349000000
H    -4.378000000     5.776000000     2.650000000
O    -4.113000000     6.086000000     6.599000000
H    -4.077000000     6.099000000     5.642000000
H    -3.265000000     6.434000000     6.875000000
O    -3.081000000     2.891000000     5.639000000
H    -4.002000000     2.673000000     5.498000000
H    -2.816000000     3.344000000     4.838000000
O    -4.020000000     5.431000000    -0.442000000
H    -3.525000000     4.868000000     0.153000000
H    -4.787000000     5.698000000     0.065000000
O     2.894000000     7.930000000     2.026000000
H     2.887000000     7.318000000     2.762000000
H     2.053000000     7.791000000     1.591000000
O     0.289000000     8.506000000     1.378000000
H     0.369000000     8.878000000     2.256000000
H    -0.513000000     7.984000000     1.411000000
O    -6.535000000     2.490000000     7.182000000
H    -6.731000000     3.381000000     7.471000000
H    -6.296000000     2.583000000     6.260000000
O    -3.999000000     9.977000000     2.122000000
H    -3.249000000    10.540000000     2.314000000
H    -3.649000000     9.301000000     1.542000000
O    -2.602000000     7.310000000     4.216000000
H    -2.934000000     8.208000000     4.216000000
H    -2.377000000     7.138000000     3.302000000
O    -6.122000000     2.987000000     4.680000000
H    -6.541000000     2.606000000     3.908000000
H    -5.649000000     3.748000000     4.344000000
O    -7.269000000     3.757000000     1.799000000
H    -6.649000000     4.287000000     2.300000000
H    -6.727000000     3.290000000     1.164000000
