215
-1453.01121
C    -4.731000000     0.396000000    -1.792000000
H    -4.777000000    -0.212000000    -0.892000000
C    -4.013000000    -0.071000000    -2.892000000
C    -3.927000000     0.804000000    -3.981000000
H    -3.240000000     0.531000000    -4.779000000
C    -3.114000000    -1.362000000    -2.819000000
O    -3.822000000    -2.438000000    -2.257000000
H    -2.350000000    -1.162000000    -2.054000000
O    -2.398000000    -1.657000000    -4.028000000
C    -1.031000000    -2.009000000    -3.997000000
C    -0.104000000    -0.953000000    -4.338000000
H    -0.407000000     0.033000000    -4.683000000
C     1.268000000    -1.220000000    -4.304000000
O     2.186000000    -0.206000000    -4.436000000
C     1.744000000    -2.430000000    -3.771000000
C     3.235000000    -2.689000000    -3.617000000
H     3.449000000    -3.752000000    -3.742000000
C     3.682000000    -2.333000000    -2.261000000
C     3.801000000    -3.230000000    -1.214000000
H     3.306000000    -4.190000000    -1.342000000
H     3.802000000    -2.138000000    -4.371000000
C     0.808000000    -3.437000000    -3.548000000
H     1.192000000    -4.393000000    -3.201000000
C    -0.578000000    -3.236000000    -3.666000000
C    -1.578000000    -4.289000000    -3.172000000
H    -1.005000000    -5.216000000    -3.238000000
H    -2.414000000    -4.456000000    -3.853000000
C    -2.033000000    -4.073000000    -1.732000000
C    -1.319000000    -4.702000000    -0.669000000
H    -0.446000000    -5.306000000    -0.906000000
C    -3.151000000    -3.299000000    -1.371000000
C    -3.472000000    -3.062000000    -0.070000000
H    -4.349000000    -2.504000000     0.248000000
C    -2.709000000    -3.719000000     0.932000000
O    -2.987000000    -3.423000000     2.227000000
C    -2.183000000    -2.477000000     2.884000000
C    -2.912000000    -1.462000000     3.763000000
C    -2.283000000    -0.744000000     4.720000000
H    -1.236000000    -0.902000000     4.967000000
C    -4.214000000    -1.106000000     3.441000000
H    -4.601000000    -1.536000000     2.521000000
O    -1.253000000    -3.204000000     3.749000000
H    -1.635000000    -1.898000000     2.127000000
C    -1.667000000    -4.561000000     0.677000000
C    -0.854000000    -5.263000000     1.807000000
H    -0.398000000    -6.210000000     1.509000000
H    -1.549000000    -5.504000000     2.614000000
C     0.324000000    -4.402000000     2.238000000
C     1.616000000    -4.522000000     1.721000000
H     1.869000000    -5.401000000     1.134000000
C    -0.022000000    -3.439000000     3.182000000
C     1.006000000    -2.600000000     3.546000000
H     0.785000000    -1.835000000     4.285000000
C     2.304000000    -2.572000000     2.984000000
O     3.171000000    -1.545000000     3.248000000
C     3.483000000    -0.528000000     2.249000000
C     3.567000000     0.853000000     2.940000000
C     2.721000000     1.131000000     4.009000000
H     2.166000000     0.296000000     4.429000000
C     4.405000000     1.829000000     2.390000000
H     5.048000000     1.533000000     1.566000000
O     4.642000000    -0.967000000     1.564000000
H     2.652000000    -0.494000000     1.529000000
C     2.616000000    -3.626000000     2.074000000
C     3.980000000    -3.774000000     1.338000000
H     4.040000000    -4.792000000     0.949000000
H     4.812000000    -3.523000000     1.999000000
C     4.139000000    -2.820000000     0.110000000
C     4.434000000    -1.440000000     0.313000000
C     4.379000000    -0.530000000    -0.702000000
H     4.573000000     0.532000000    -0.579000000
C     4.133000000    -1.000000000    -1.987000000
O     4.002000000    -0.061000000    -3.015000000
C     2.670000000     0.396000000    -3.255000000
H     1.942000000     0.206000000    -2.452000000
C     2.679000000     1.857000000    -3.500000000
C     1.512000000     2.482000000    -3.852000000
H     0.659000000     1.874000000    -4.142000000
C     3.764000000     2.691000000    -3.092000000
H     4.687000000     2.291000000    -2.682000000
C     3.622000000     4.032000000    -2.947000000
O     4.725000000     4.808000000    -2.539000000
C     2.477000000     4.655000000    -3.377000000
H     2.350000000     5.730000000    -3.286000000
C     1.366000000     3.864000000    -3.817000000
O     0.172000000     4.518000000    -4.143000000
C    -0.755000000     3.971000000    -5.031000000
C    -2.086000000     3.743000000    -4.638000000
H    -2.399000000     3.870000000    -3.605000000
C    -0.441000000     3.763000000    -6.386000000
H     0.587000000     3.915000000    -6.706000000
C    -1.375000000     3.172000000    -7.250000000
H    -1.046000000     2.910000000    -8.252000000
C    -2.643000000     2.859000000    -6.786000000
H    -3.378000000     2.302000000    -7.362000000
C    -3.010000000     3.205000000    -5.509000000
O    -4.267000000     2.862000000    -5.075000000
C    -4.446000000     2.105000000    -3.948000000
C    -5.267000000     2.467000000    -2.926000000
H    -5.667000000     3.473000000    -2.835000000
C    -5.325000000     1.635000000    -1.812000000
O    -5.982000000     2.097000000    -0.676000000
C    -6.534000000     1.215000000     0.281000000
C    -6.014000000     1.100000000     1.561000000
H    -5.245000000     1.715000000     2.022000000
C    -7.413000000     0.286000000    -0.197000000
H    -7.730000000     0.236000000    -1.236000000
C    -7.979000000    -0.712000000     0.573000000
H    -8.709000000    -1.431000000     0.208000000
C    -7.548000000    -0.747000000     1.896000000
H    -7.999000000    -1.525000000     2.507000000
C    -6.564000000     0.158000000     2.392000000
O    -6.261000000     0.097000000     3.753000000
C    -5.006000000    -0.249000000     4.156000000
C    -4.430000000     0.323000000     5.270000000
H    -5.024000000     1.034000000     5.838000000
C    -3.053000000     0.250000000     5.413000000
O    -2.543000000     0.833000000     6.524000000
C    -1.163000000     0.906000000     6.744000000
C    -0.311000000     1.571000000     5.841000000
H    -0.731000000     2.171000000     5.038000000
C    -0.594000000     0.348000000     7.913000000
H    -1.168000000    -0.108000000     8.716000000
C     0.817000000     0.375000000     8.081000000
H     1.295000000     0.125000000     9.025000000
C     1.556000000     1.102000000     7.190000000
H     2.597000000     1.373000000     7.350000000
C     1.031000000     1.761000000     6.071000000
O     1.688000000     2.776000000     5.318000000
C     2.634000000     2.445000000     4.430000000
C     3.348000000     3.467000000     3.757000000
H     3.288000000     4.442000000     4.233000000
C     4.304000000     3.147000000     2.765000000
O     5.008000000     4.180000000     2.229000000
C     5.611000000     4.151000000     1.000000000
C     6.991000000     4.237000000     0.934000000
H     7.569000000     4.094000000     1.843000000
C     7.643000000     4.300000000    -0.296000000
H     8.717000000     4.208000000    -0.436000000
C     6.856000000     4.660000000    -1.427000000
H     7.269000000     4.729000000    -2.430000000
C     5.479000000     4.615000000    -1.357000000
C     4.883000000     4.348000000    -0.165000000
H     3.800000000     4.267000000    -0.210000000
C    -0.765000000     1.489000000     1.637000000
H    -0.556000000     1.595000000     2.699000000
C    -0.282000000     0.382000000     0.925000000
H     0.288000000    -0.403000000     1.416000000
C    -0.553000000     0.199000000    -0.441000000
H    -0.086000000    -0.652000000    -0.956000000
C    -1.220000000     1.215000000    -1.128000000
H    -1.377000000     1.085000000    -2.196000000
C    -1.750000000     2.290000000    -0.406000000
H    -2.397000000     3.024000000    -0.880000000
C    -1.507000000     2.491000000     0.927000000
C    -1.945000000     3.714000000     1.661000000
O    -2.209000000     4.721000000     1.097000000
O    -2.066000000     3.607000000     2.853000000
O    -0.545000000     5.399000000     4.345000000
H    -1.185000000     5.919000000     3.858000000
H    -0.630000000     4.516000000     3.984000000
O     1.497000000     6.012000000     6.320000000
H     1.536000000     6.669000000     5.624000000
H     0.641000000     5.598000000     6.211000000
O    -1.907000000     4.442000000     6.671000000
H    -2.773000000     4.783000000     6.447000000
H    -1.375000000     4.608000000     5.893000000
O    -0.582000000     7.975000000     0.279000000
H    -0.120000000     7.290000000    -0.206000000
H    -0.896000000     8.576000000    -0.397000000
O    -4.688000000     8.199000000     3.012000000
H    -5.114000000     8.806000000     3.617000000
H    -4.144000000     7.645000000     3.572000000
O    -3.196000000     6.493000000    -0.665000000
H    -2.491000000     6.584000000    -1.306000000
H    -2.794000000     6.025000000     0.067000000
O    -1.920000000     7.122000000     2.498000000
H    -1.360000000     7.685000000     1.964000000
H    -2.003000000     6.315000000     1.990000000
O    -2.419000000     8.932000000     4.891000000
H    -2.152000000     9.832000000     4.706000000
H    -2.000000000     8.412000000     4.204000000
O     1.170000000     5.017000000    -0.538000000
H     1.180000000     5.156000000     0.409000000
H     1.246000000     4.068000000    -0.642000000
O     1.943000000     2.274000000    -0.008000000
H     1.104000000     1.814000000    -0.051000000
H     2.597000000     1.576000000     0.029000000
O     1.771000000     9.076000000     1.808000000
H     1.161000000     8.467000000     1.392000000
H     2.557000000     9.037000000     1.263000000
O    -1.335000000     6.560000000    -2.441000000
H    -1.365000000     7.174000000    -3.175000000
H    -0.402000000     6.448000000    -2.261000000
O    -4.645000000     3.605000000     3.691000000
H    -3.704000000     3.459000000     3.586000000
H    -4.874000000     4.209000000     2.986000000
O    -4.505000000     5.124000000     6.088000000
H    -4.640000000     4.393000000     5.485000000
H    -5.389000000     5.417000000     6.310000000
O    -7.301000000     6.445000000     0.284000000
H    -6.478000000     6.074000000     0.604000000
H    -7.716000000     6.814000000     1.064000000
O     1.564000000     5.804000000     2.246000000
H     1.887000000     6.592000000     2.682000000
H     0.929000000     5.434000000     2.860000000
O    -4.843000000     5.508000000     1.556000000
H    -4.628000000     6.257000000     2.112000000
H    -3.995000000     5.139000000     1.310000000
O    -4.724000000     8.608000000     0.420000000
H    -4.758000000     8.216000000     1.293000000
H    -4.280000000     7.953000000    -0.119000000
O    -5.209000000     6.834000000    -2.790000000
H    -4.796000000     6.463000000    -3.569000000
H    -4.567000000     6.703000000    -2.092000000
