215
-1456.04726
C    -4.809000000    -0.139000000    -1.163000000
H    -4.993000000    -1.034000000    -0.573000000
C    -3.822000000    -0.066000000    -2.142000000
C    -3.755000000     1.088000000    -2.948000000
H    -2.937000000     1.145000000    -3.661000000
C    -2.826000000    -1.174000000    -2.385000000
O    -3.351000000    -2.536000000    -2.123000000
H    -1.954000000    -1.029000000    -1.730000000
O    -2.364000000    -1.165000000    -3.741000000
C    -1.004000000    -1.401000000    -4.044000000
C    -0.307000000    -0.416000000    -4.702000000
H    -0.740000000     0.565000000    -4.880000000
C     1.087000000    -0.551000000    -4.950000000
O     1.863000000     0.633000000    -5.028000000
C     1.725000000    -1.709000000    -4.546000000
C     3.236000000    -1.902000000    -4.515000000
H     3.470000000    -2.956000000    -4.678000000
C     3.784000000    -1.551000000    -3.145000000
C     3.913000000    -2.487000000    -2.142000000
H     3.634000000    -3.510000000    -2.383000000
H     3.804000000    -1.334000000    -5.255000000
C     0.969000000    -2.766000000    -3.922000000
H     1.398000000    -3.698000000    -3.564000000
C    -0.389000000    -2.592000000    -3.685000000
C    -1.197000000    -3.863000000    -3.337000000
H    -0.646000000    -4.751000000    -3.656000000
H    -2.153000000    -3.937000000    -3.859000000
C    -1.412000000    -3.964000000    -1.844000000
C    -0.599000000    -4.727000000    -0.976000000
H     0.338000000    -5.088000000    -1.391000000
C    -2.598000000    -3.409000000    -1.362000000
C    -2.921000000    -3.588000000    -0.044000000
H    -3.807000000    -3.067000000     0.310000000
C    -2.037000000    -4.213000000     0.826000000
O    -2.206000000    -4.181000000     2.129000000
C    -1.423000000    -3.145000000     2.758000000
C    -2.259000000    -2.249000000     3.688000000
C    -1.634000000    -1.503000000     4.684000000
H    -0.594000000    -1.721000000     4.912000000
C    -3.666000000    -2.122000000     3.583000000
H    -4.281000000    -2.652000000     2.860000000
O    -0.240000000    -3.693000000     3.448000000
H    -1.005000000    -2.540000000     1.939000000
C    -0.899000000    -4.917000000     0.345000000
C     0.067000000    -5.672000000     1.272000000
H     0.504000000    -6.545000000     0.784000000
H    -0.487000000    -6.088000000     2.117000000
C     1.075000000    -4.664000000     1.666000000
C     2.224000000    -4.570000000     0.885000000
H     2.371000000    -5.246000000     0.047000000
C     0.846000000    -3.688000000     2.673000000
C     1.743000000    -2.696000000     2.850000000
H     1.514000000    -1.911000000     3.566000000
C     2.904000000    -2.602000000     2.135000000
O     3.757000000    -1.576000000     2.385000000
C     3.832000000    -0.365000000     1.688000000
C     3.975000000     0.844000000     2.603000000
C     3.064000000     0.940000000     3.679000000
H     2.307000000     0.205000000     3.938000000
C     4.808000000     1.924000000     2.234000000
H     5.432000000     1.932000000     1.345000000
O     4.927000000    -0.435000000     0.751000000
H     2.924000000    -0.286000000     1.072000000
C     3.122000000    -3.472000000     1.095000000
C     4.451000000    -3.283000000     0.301000000
H     4.645000000    -4.143000000    -0.343000000
H     5.302000000    -3.128000000     0.968000000
C     4.394000000    -2.170000000    -0.853000000
C     4.658000000    -0.836000000    -0.571000000
C     4.574000000     0.107000000    -1.606000000
H     4.695000000     1.144000000    -1.301000000
C     4.110000000    -0.194000000    -2.859000000
O     3.743000000     0.859000000    -3.741000000
C     2.342000000     1.139000000    -3.780000000
H     1.828000000     0.543000000    -3.012000000
C     1.942000000     2.613000000    -3.482000000
C     0.928000000     3.204000000    -4.292000000
H     0.481000000     2.796000000    -5.194000000
C     2.389000000     3.285000000    -2.351000000
H     3.259000000     2.878000000    -1.841000000
C     1.902000000     4.516000000    -1.984000000
O     2.276000000     5.135000000    -0.795000000
C     0.985000000     5.173000000    -2.868000000
H     0.648000000     6.169000000    -2.592000000
C     0.517000000     4.518000000    -3.978000000
O    -0.378000000     5.101000000    -4.755000000
C    -1.541000000     4.453000000    -5.143000000
C    -2.452000000     4.171000000    -4.189000000
H    -2.239000000     4.427000000    -3.154000000
C    -1.754000000     3.884000000    -6.440000000
H    -1.031000000     3.933000000    -7.250000000
C    -2.968000000     3.320000000    -6.797000000
H    -3.111000000     2.960000000    -7.812000000
C    -3.928000000     3.170000000    -5.852000000
H    -4.826000000     2.600000000    -6.075000000
C    -3.648000000     3.495000000    -4.527000000
O    -4.622000000     3.267000000    -3.550000000
C    -4.636000000     2.109000000    -2.822000000
C    -5.550000000     2.044000000    -1.799000000
H    -6.152000000     2.933000000    -1.627000000
C    -5.649000000     0.958000000    -0.924000000
O    -6.680000000     0.879000000    -0.014000000
C    -6.980000000    -0.076000000     0.944000000
C    -6.200000000    -0.073000000     2.144000000
H    -5.518000000     0.742000000     2.375000000
C    -7.957000000    -1.032000000     0.734000000
H    -8.439000000    -0.970000000    -0.238000000
C    -8.163000000    -2.009000000     1.705000000
H    -9.049000000    -2.639000000     1.668000000
C    -7.401000000    -1.995000000     2.911000000
H    -7.663000000    -2.814000000     3.575000000
C    -6.430000000    -1.055000000     3.092000000
O    -5.724000000    -1.069000000     4.347000000
C    -4.329000000    -1.236000000     4.409000000
C    -3.676000000    -0.511000000     5.362000000
H    -4.268000000     0.203000000     5.928000000
C    -2.326000000    -0.651000000     5.545000000
O    -1.728000000     0.012000000     6.605000000
C    -0.385000000     0.149000000     6.738000000
C     0.238000000     1.230000000     6.151000000
H    -0.384000000     2.021000000     5.739000000
C     0.353000000    -0.840000000     7.339000000
H    -0.085000000    -1.747000000     7.747000000
C     1.727000000    -0.644000000     7.513000000
H     2.318000000    -1.340000000     8.103000000
C     2.391000000     0.384000000     6.864000000
H     3.448000000     0.626000000     6.932000000
C     1.629000000     1.316000000     6.125000000
O     2.276000000     2.363000000     5.488000000
C     3.107000000     2.158000000     4.439000000
C     4.039000000     3.157000000     4.214000000
H     3.960000000     4.099000000     4.750000000
C     4.904000000     2.980000000     3.131000000
O     5.562000000     4.073000000     2.624000000
C     5.141000000     4.779000000     1.584000000
C     6.151000000     5.576000000     0.961000000
H     7.120000000     5.712000000     1.435000000
C     5.905000000     6.100000000    -0.335000000
H     6.554000000     6.728000000    -0.940000000
C     4.634000000     5.894000000    -0.949000000
H     4.408000000     6.396000000    -1.886000000
C     3.630000000     5.142000000    -0.327000000
C     3.875000000     4.591000000     0.965000000
H     3.064000000     4.107000000     1.503000000
C    -1.100000000     0.358000000     1.397000000
H    -1.325000000     0.160000000     2.442000000
C    -0.197000000    -0.362000000     0.604000000
H     0.374000000    -1.220000000     0.951000000
C     0.053000000    -0.024000000    -0.760000000
H     0.868000000    -0.541000000    -1.337000000
C    -0.572000000     1.040000000    -1.263000000
H    -0.417000000     1.386000000    -2.282000000
C    -1.491000000     1.776000000    -0.455000000
H    -1.860000000     2.668000000    -0.955000000
C    -1.788000000     1.458000000     0.861000000
C    -2.635000000     2.397000000     1.753000000
O    -3.071000000     3.434000000     1.387000000
O    -2.707000000     2.070000000     2.961000000
O     0.487000000     3.969000000     2.802000000
H     0.255000000     3.350000000     3.494000000
H     0.623000000     3.424000000     2.027000000
O    -1.980000000     3.899000000     7.257000000
H    -2.891000000     3.689000000     7.460000000
H    -1.954000000     3.950000000     6.301000000
O    -5.457000000     4.425000000     1.717000000
H    -4.741000000     3.820000000     1.524000000
H    -5.126000000     5.281000000     1.446000000
O    -8.435000000     4.083000000     2.040000000
H    -8.614000000     4.644000000     2.795000000
H    -7.480000000     4.047000000     1.990000000
O    -1.419000000     6.790000000     3.456000000
H    -0.531000000     7.063000000     3.226000000
H    -1.978000000     7.227000000     2.814000000
O    -2.999000000     8.450000000     2.083000000
H    -3.709000000     8.314000000     2.711000000
H    -3.399000000     8.954000000     1.375000000
O    -0.211000000     6.107000000     0.757000000
H     0.408000000     5.665000000     0.175000000
H    -0.254000000     5.546000000     1.531000000
O    -4.692000000     3.134000000     6.918000000
H    -4.820000000     2.785000000     6.036000000
H    -4.860000000     4.072000000     6.832000000
O     1.157000000     2.366000000     0.883000000
H     0.464000000     1.828000000     0.500000000
H     1.828000000     2.413000000     0.201000000
O    -2.518000000     5.528000000    -0.602000000
H    -2.790000000     4.867000000     0.035000000
H    -1.782000000     5.975000000    -0.184000000
O    -2.816000000     7.854000000    -2.085000000
H    -1.895000000     8.113000000    -2.047000000
H    -2.810000000     6.916000000    -1.895000000
O    -4.974000000     2.557000000     4.189000000
H    -5.088000000     3.248000000     3.535000000
H    -4.120000000     2.176000000     3.988000000
O    -0.820000000     6.752000000     6.216000000
H    -1.130000000     6.806000000     5.313000000
H    -1.278000000     5.996000000     6.583000000
O    -2.010000000     4.362000000     4.570000000
H    -1.795000000     5.102000000     4.001000000
H    -2.054000000     3.610000000     3.980000000
O     2.101000000     5.852000000     4.286000000
H     1.778000000     6.575000000     3.748000000
H     1.860000000     5.064000000     3.798000000
O    -4.912000000     6.878000000     0.734000000
H    -3.985000000     6.832000000     0.499000000
H    -5.359000000     7.073000000    -0.090000000
O    -6.946000000     7.465000000     2.930000000
H    -6.276000000     8.134000000     3.071000000
H    -6.461000000     6.706000000     2.606000000
O    -7.505000000     3.802000000     4.861000000
H    -7.981000000     3.640000000     5.676000000
H    -7.115000000     2.956000000     4.640000000
O    -5.562000000     5.650000000    -2.416000000
H    -5.146000000     4.788000000    -2.395000000
H    -6.496000000     5.463000000    -2.511000000
