215
-1451.93583
C    -1.216000000    -0.170000000    -5.367000000
H    -1.716000000    -1.102000000    -5.117000000
C     0.143000000    -0.015000000    -4.995000000
C     0.812000000     1.139000000    -5.457000000
H     1.838000000     1.398000000    -5.211000000
C     0.824000000    -0.989000000    -4.081000000
O     0.270000000    -2.318000000    -4.257000000
H     0.744000000    -0.639000000    -3.042000000
O     2.207000000    -0.857000000    -4.331000000
C     3.071000000    -1.005000000    -3.238000000
C     3.584000000     0.097000000    -2.634000000
H     3.524000000     1.094000000    -3.063000000
C     4.347000000     0.045000000    -1.479000000
O     4.754000000     1.209000000    -0.912000000
C     4.455000000    -1.201000000    -0.773000000
C     5.382000000    -1.285000000     0.341000000
H     5.818000000    -2.283000000     0.426000000
C     4.587000000    -0.981000000     1.597000000
C     4.030000000    -2.056000000     2.301000000
H     4.177000000    -3.059000000     1.911000000
H     6.208000000    -0.584000000     0.205000000
C     3.926000000    -2.314000000    -1.390000000
H     4.254000000    -3.282000000    -1.021000000
C     3.323000000    -2.243000000    -2.684000000
C     2.752000000    -3.532000000    -3.295000000
H     3.434000000    -4.358000000    -3.081000000
H     2.682000000    -3.483000000    -4.383000000
C     1.372000000    -3.797000000    -2.686000000
C     1.241000000    -4.567000000    -1.547000000
H     2.065000000    -4.959000000    -0.956000000
C     0.215000000    -3.191000000    -3.189000000
C    -1.016000000    -3.521000000    -2.695000000
H    -1.845000000    -3.030000000    -3.199000000
C    -1.152000000    -4.315000000    -1.566000000
O    -2.425000000    -4.362000000    -0.987000000
C    -2.605000000    -3.404000000     0.120000000
C    -3.953000000    -2.573000000     0.103000000
C    -4.914000000    -2.620000000     1.119000000
H    -4.768000000    -3.266000000     1.981000000
C    -4.187000000    -1.806000000    -1.013000000
H    -3.486000000    -1.614000000    -1.821000000
O    -2.448000000    -4.129000000     1.360000000
H    -1.830000000    -2.647000000    -0.071000000
C     0.003000000    -4.883000000    -0.986000000
C    -0.009000000    -5.643000000     0.379000000
H     0.835000000    -6.324000000     0.511000000
H    -0.898000000    -6.269000000     0.485000000
C    -0.048000000    -4.650000000     1.563000000
C     1.172000000    -4.339000000     2.223000000
H     2.075000000    -4.837000000     1.879000000
C    -1.234000000    -3.939000000     1.945000000
C    -1.164000000    -3.041000000     2.891000000
H    -2.030000000    -2.460000000     3.198000000
C    -0.003000000    -2.835000000     3.615000000
O    -0.071000000    -1.770000000     4.469000000
C     0.409000000    -0.443000000     4.191000000
C    -0.514000000     0.681000000     4.670000000
C    -1.911000000     0.475000000     4.635000000
H    -2.256000000    -0.524000000     4.385000000
C    -0.028000000     1.925000000     5.034000000
H     1.015000000     2.228000000     4.986000000
O     1.777000000    -0.363000000     4.742000000
H     0.332000000    -0.342000000     3.098000000
C     1.153000000    -3.507000000     3.320000000
C     2.477000000    -3.159000000     4.015000000
H     3.140000000    -4.025000000     3.966000000
H     2.372000000    -2.945000000     5.081000000
C     3.131000000    -1.893000000     3.396000000
C     2.779000000    -0.586000000     3.780000000
C     3.346000000     0.482000000     3.115000000
H     3.090000000     1.487000000     3.442000000
C     4.204000000     0.328000000     2.034000000
O     4.606000000     1.375000000     1.346000000
C     3.874000000     1.710000000     0.116000000
H     2.979000000     1.077000000     0.022000000
C     3.349000000     3.095000000    -0.057000000
C     3.115000000     3.652000000    -1.372000000
H     3.401000000     3.075000000    -2.248000000
C     3.042000000     3.853000000     1.070000000
H     3.134000000     3.373000000     2.041000000
C     2.508000000     5.163000000     0.990000000
O     2.015000000     5.898000000     2.028000000
C     2.369000000     5.665000000    -0.299000000
H     1.996000000     6.681000000    -0.401000000
C     2.709000000     4.944000000    -1.455000000
O     2.277000000     5.441000000    -2.708000000
C     2.595000000     4.828000000    -3.926000000
C     1.643000000     4.219000000    -4.622000000
H     0.680000000     4.007000000    -4.164000000
C     3.891000000     4.766000000    -4.412000000
H     4.631000000     5.283000000    -3.806000000
C     4.272000000     4.246000000    -5.619000000
H     5.301000000     4.200000000    -5.967000000
C     3.208000000     3.803000000    -6.430000000
H     3.431000000     3.321000000    -7.378000000
C     1.895000000     3.747000000    -5.919000000
O     0.828000000     3.219000000    -6.715000000
C     0.179000000     2.066000000    -6.263000000
C    -1.143000000     1.898000000    -6.605000000
H    -1.648000000     2.713000000    -7.117000000
C    -1.856000000     0.798000000    -6.081000000
O    -3.157000000     0.582000000    -6.480000000
C    -4.015000000    -0.165000000    -5.636000000
C    -4.185000000     0.126000000    -4.204000000
H    -3.642000000     0.986000000    -3.820000000
C    -4.712000000    -1.268000000    -6.167000000
H    -4.616000000    -1.488000000    -7.227000000
C    -5.591000000    -1.955000000    -5.384000000
H    -6.269000000    -2.688000000    -5.815000000
C    -5.848000000    -1.620000000    -4.076000000
H    -6.630000000    -2.191000000    -3.581000000
C    -5.155000000    -0.570000000    -3.467000000
O    -5.536000000    -0.152000000    -2.171000000
C    -5.267000000    -0.958000000    -1.067000000
C    -6.166000000    -0.898000000    -0.010000000
H    -6.966000000    -0.175000000    -0.149000000
C    -6.032000000    -1.750000000     1.095000000
O    -6.879000000    -1.630000000     2.257000000
C    -6.263000000    -1.369000000     3.491000000
C    -5.442000000    -0.213000000     3.594000000
H    -5.068000000     0.207000000     2.663000000
C    -6.524000000    -2.115000000     4.579000000
H    -7.213000000    -2.954000000     4.616000000
C    -5.965000000    -1.793000000     5.806000000
H    -6.309000000    -2.337000000     6.682000000
C    -5.190000000    -0.660000000     5.943000000
H    -4.854000000    -0.375000000     6.936000000
C    -4.812000000     0.058000000     4.839000000
O    -4.143000000     1.204000000     4.986000000
C    -2.783000000     1.430000000     5.075000000
C    -2.304000000     2.712000000     5.443000000
H    -2.967000000     3.541000000     5.676000000
C    -0.914000000     2.927000000     5.396000000
O    -0.476000000     4.212000000     5.721000000
C     0.697000000     4.668000000     5.231000000
C     1.836000000     4.645000000     6.050000000
H     1.954000000     4.355000000     7.091000000
C     3.023000000     5.102000000     5.486000000
H     3.941000000     4.882000000     6.025000000
C     3.074000000     5.570000000     4.175000000
H     4.005000000     5.983000000     3.795000000
C     1.926000000     5.463000000     3.369000000
C     0.708000000     5.086000000     3.892000000
H    -0.216000000     5.168000000     3.325000000
C    -2.182000000     1.180000000     0.037000000
H    -3.182000000     1.467000000     0.354000000
C    -1.638000000     0.103000000     0.638000000
H    -2.182000000    -0.541000000     1.324000000
C    -0.370000000    -0.316000000     0.293000000
H     0.019000000    -1.151000000     0.842000000
C     0.259000000     0.286000000    -0.755000000
H     1.273000000    -0.010000000    -1.013000000
C    -0.303000000     1.341000000    -1.465000000
H     0.237000000     1.740000000    -2.319000000
C    -1.549000000     1.822000000    -1.084000000
C    -2.208000000     3.043000000    -1.722000000
O    -1.584000000     3.683000000    -2.557000000
O    -3.146000000     3.494000000    -1.146000000
O    -6.171000000     4.043000000    -5.193000000
H    -6.218000000     3.484000000    -4.418000000
H    -6.224000000     3.435000000    -5.931000000
O    -6.167000000     6.723000000    -3.903000000
H    -5.477000000     6.623000000    -3.247000000
H    -6.260000000     5.851000000    -4.288000000
O     1.136000000     7.265000000    -6.519000000
H     0.560000000     7.010000000    -7.240000000
H     0.680000000     6.970000000    -5.731000000
O    -2.627000000     8.768000000    -2.829000000
H    -2.020000000     8.048000000    -2.656000000
H    -2.386000000     9.079000000    -3.702000000
O    -8.679000000     1.855000000    -3.205000000
H    -7.798000000     1.932000000    -2.838000000
H    -8.966000000     2.759000000    -3.332000000
O    -6.967000000     3.563000000     0.147000000
H    -7.121000000     3.541000000     1.092000000
H    -7.390000000     4.370000000    -0.146000000
O    -3.995000000     9.294000000    -0.624000000
H    -3.603000000     9.151000000    -1.486000000
H    -3.711000000     8.542000000    -0.104000000
O    -3.184000000     6.988000000     0.317000000
H    -3.639000000     6.435000000     0.952000000
H    -2.262000000     6.933000000     0.569000000
O    -4.154000000     4.571000000    -7.679000000
H    -3.928000000     4.804000000    -6.779000000
H    -4.819000000     3.888000000    -7.591000000
O    -2.036000000     3.746000000     2.647000000
H    -1.650000000     2.913000000     2.379000000
H    -2.917000000     3.735000000     2.271000000
O    -1.001000000     6.138000000    -1.878000000
H    -0.852000000     6.027000000    -0.939000000
H    -1.538000000     5.386000000    -2.126000000
O    -2.917000000     4.648000000    -4.636000000
H    -2.409000000     4.191000000    -3.965000000
H    -3.796000000     4.719000000    -4.264000000
O    -6.117000000     2.872000000    -2.427000000
H    -6.469000000     3.363000000    -1.685000000
H    -5.191000000     2.750000000    -2.216000000
O    -0.757000000     6.934000000     1.833000000
H    -0.502000000     7.839000000     1.653000000
H    -0.289000000     6.709000000     2.637000000
O    -2.529000000     6.992000000    -6.204000000
H    -1.812000000     6.919000000    -6.835000000
H    -2.572000000     6.130000000    -5.790000000
O    -7.821000000     5.980000000    -0.749000000
H    -8.659000000     6.337000000    -0.456000000
H    -7.184000000     6.665000000    -0.544000000
O    -4.302000000     5.799000000    -2.071000000
H    -3.960000000     6.450000000    -1.459000000
H    -4.115000000     4.957000000    -1.655000000
O    -0.137000000     6.766000000    -4.308000000
H    -1.054000000     6.986000000    -4.470000000
H    -0.147000000     6.287000000    -3.480000000
O    -4.507000000     3.531000000     1.269000000
H    -3.983000000     3.256000000     0.516000000
H    -5.396000000     3.616000000     0.924000000
