215
-1444.07962
C    -4.872000000    -0.576000000    -0.341000000
H    -4.259000000    -1.307000000     0.180000000
C    -4.633000000    -0.387000000    -1.694000000
C    -5.251000000     0.692000000    -2.284000000
H    -5.078000000     0.886000000    -3.340000000
C    -3.547000000    -1.306000000    -2.351000000
O    -3.718000000    -2.720000000    -2.215000000
H    -2.620000000    -1.002000000    -1.842000000
O    -3.408000000    -0.964000000    -3.768000000
C    -2.144000000    -0.708000000    -4.251000000
C    -1.694000000     0.582000000    -4.175000000
H    -2.321000000     1.362000000    -3.749000000
C    -0.372000000     0.872000000    -4.507000000
O     0.026000000     2.127000000    -4.356000000
C     0.525000000    -0.163000000    -4.873000000
C     1.986000000     0.035000000    -5.326000000
H     2.298000000    -0.661000000    -6.107000000
C     2.891000000     0.061000000    -4.077000000
C     3.516000000    -1.074000000    -3.623000000
H     3.430000000    -1.923000000    -4.297000000
H     2.078000000     0.967000000    -5.887000000
C     0.063000000    -1.519000000    -4.780000000
H     0.765000000    -2.341000000    -4.890000000
C    -1.295000000    -1.791000000    -4.506000000
C    -1.625000000    -3.280000000    -4.209000000
H    -0.852000000    -3.784000000    -4.795000000
H    -2.548000000    -3.606000000    -4.694000000
C    -1.588000000    -3.676000000    -2.736000000
C    -0.424000000    -4.332000000    -2.369000000
H     0.463000000    -4.336000000    -2.997000000
C    -2.632000000    -3.481000000    -1.873000000
C    -2.493000000    -4.000000000    -0.545000000
H    -3.351000000    -3.876000000     0.111000000
C    -1.273000000    -4.594000000    -0.104000000
O    -1.082000000    -4.827000000     1.198000000
C    -0.180000000    -3.967000000     1.965000000
C    -0.728000000    -3.744000000     3.362000000
C     0.124000000    -3.357000000     4.428000000
H     1.197000000    -3.502000000     4.332000000
C    -2.071000000    -3.491000000     3.564000000
H    -2.707000000    -3.573000000     2.687000000
O     1.200000000    -4.546000000     2.058000000
H    -0.203000000    -2.967000000     1.508000000
C    -0.284000000    -4.800000000    -1.047000000
C     1.024000000    -5.502000000    -0.618000000
H     1.427000000    -6.138000000    -1.408000000
H     0.798000000    -6.309000000     0.083000000
C     2.062000000    -4.488000000    -0.143000000
C     2.938000000    -3.981000000    -1.086000000
H     2.782000000    -4.252000000    -2.127000000
C     2.126000000    -4.089000000     1.158000000
C     3.113000000    -3.195000000     1.544000000
H     3.167000000    -2.871000000     2.580000000
C     4.016000000    -2.700000000     0.658000000
O     4.726000000    -1.572000000     1.212000000
C     4.251000000    -0.287000000     0.840000000
C     4.254000000     0.796000000     1.957000000
C     3.652000000     0.461000000     3.134000000
H     3.290000000    -0.537000000     3.371000000
C     4.609000000     2.129000000     1.722000000
H     5.143000000     2.342000000     0.799000000
O     4.913000000     0.092000000    -0.345000000
H     3.179000000    -0.374000000     0.607000000
C     3.961000000    -3.081000000    -0.747000000
C     4.804000000    -2.428000000    -1.797000000
H     5.106000000    -3.248000000    -2.453000000
H     5.746000000    -2.092000000    -1.358000000
C     4.263000000    -1.128000000    -2.353000000
C     4.318000000     0.021000000    -1.548000000
C     3.592000000     1.173000000    -2.004000000
H     3.562000000     2.019000000    -1.321000000
C     2.888000000     1.172000000    -3.223000000
O     2.238000000     2.361000000    -3.518000000
C     0.865000000     2.470000000    -3.227000000
H     0.634000000     1.753000000    -2.424000000
C     0.464000000     3.822000000    -2.664000000
C    -0.894000000     4.147000000    -2.518000000
H    -1.621000000     3.449000000    -2.925000000
C     1.466000000     4.652000000    -2.039000000
H     2.529000000     4.452000000    -2.147000000
C     1.078000000     5.783000000    -1.336000000
O     2.037000000     6.624000000    -0.709000000
C    -0.290000000     6.046000000    -1.148000000
H    -0.586000000     6.907000000    -0.554000000
C    -1.334000000     5.261000000    -1.822000000
O    -2.624000000     5.658000000    -1.701000000
C    -3.615000000     5.046000000    -2.442000000
C    -4.476000000     4.016000000    -1.892000000
H    -4.233000000     3.572000000    -0.930000000
C    -3.914000000     5.549000000    -3.726000000
H    -3.353000000     6.406000000    -4.090000000
C    -4.954000000     4.946000000    -4.503000000
H    -5.088000000     5.199000000    -5.551000000
C    -5.919000000     4.131000000    -3.919000000
H    -6.724000000     3.718000000    -4.520000000
C    -5.666000000     3.650000000    -2.600000000
O    -6.569000000     2.703000000    -2.182000000
C    -6.087000000     1.537000000    -1.538000000
C    -6.300000000     1.419000000    -0.205000000
H    -6.991000000     2.064000000     0.332000000
C    -5.692000000     0.292000000     0.416000000
O    -5.879000000     0.154000000     1.726000000
C    -5.860000000    -1.072000000     2.358000000
C    -4.920000000    -1.319000000     3.422000000
H    -4.224000000    -0.536000000     3.713000000
C    -6.804000000    -2.036000000     1.968000000
H    -7.405000000    -1.793000000     1.096000000
C    -6.758000000    -3.301000000     2.464000000
H    -7.462000000    -4.030000000     2.072000000
C    -5.928000000    -3.534000000     3.597000000
H    -5.897000000    -4.487000000     4.120000000
C    -4.926000000    -2.563000000     3.979000000
O    -3.932000000    -2.839000000     4.901000000
C    -2.641000000    -3.064000000     4.757000000
C    -1.838000000    -2.952000000     5.879000000
H    -2.252000000    -2.548000000     6.800000000
C    -0.430000000    -3.043000000     5.728000000
O     0.409000000    -2.701000000     6.769000000
C     1.549000000    -1.968000000     6.691000000
C     1.674000000    -0.732000000     6.042000000
H     0.818000000    -0.179000000     5.664000000
C     2.717000000    -2.715000000     7.052000000
H     2.610000000    -3.706000000     7.486000000
C     3.957000000    -2.208000000     6.830000000
H     4.802000000    -2.839000000     7.095000000
C     4.111000000    -0.950000000     6.235000000
H     5.116000000    -0.567000000     6.073000000
C     2.975000000    -0.202000000     5.841000000
O     3.104000000     1.092000000     5.377000000
C     3.570000000     1.412000000     4.130000000
C     3.890000000     2.714000000     3.919000000
H     3.857000000     3.323000000     4.818000000
C     4.488000000     3.063000000     2.702000000
O     4.857000000     4.391000000     2.540000000
C     4.657000000     5.181000000     1.389000000
C     5.796000000     5.740000000     0.842000000
H     6.735000000     5.472000000     1.320000000
C     5.705000000     6.476000000    -0.313000000
H     6.523000000     7.027000000    -0.769000000
C     4.450000000     6.747000000    -0.811000000
H     4.339000000     7.434000000    -1.646000000
C     3.267000000     6.239000000    -0.170000000
C     3.347000000     5.416000000     0.953000000
H     2.482000000     5.066000000     1.510000000
C    -0.835000000     0.385000000     2.184000000
H    -0.881000000     0.354000000     3.270000000
C     0.161000000    -0.241000000     1.418000000
H     0.904000000    -0.745000000     2.032000000
C     0.183000000    -0.254000000     0.040000000
H     0.831000000    -0.906000000    -0.590000000
C    -0.844000000     0.400000000    -0.632000000
H    -0.843000000     0.342000000    -1.718000000
C    -1.804000000     1.157000000     0.087000000
H    -2.613000000     1.673000000    -0.422000000
C    -1.797000000     1.108000000     1.531000000
C    -2.968000000     1.683000000     2.276000000
O    -3.611000000     2.505000000     1.668000000
O    -2.995000000     1.739000000     3.495000000
O    -0.198000000     6.163000000     3.969000000
H    -0.249000000     5.211000000     3.876000000
H     0.688000000     6.325000000     4.290000000
O    -2.590000000     3.474000000     7.166000000
H    -3.252000000     3.243000000     6.515000000
H    -2.517000000     4.426000000     7.107000000
O    -3.658000000     8.824000000     4.785000000
H    -3.834000000     7.905000000     4.586000000
H    -2.747000000     8.956000000     4.522000000
O    -5.886000000     3.579000000     2.441000000
H    -5.736000000     3.686000000     3.380000000
H    -5.064000000     3.221000000     2.107000000
O    -8.687000000     3.151000000     1.853000000
H    -9.066000000     2.910000000     2.698000000
H    -7.741000000     3.103000000     1.993000000
O     0.778000000     4.170000000     7.218000000
H     0.866000000     5.122000000     7.167000000
H     0.476000000     4.005000000     8.111000000
O    -5.474000000     0.137000000     7.198000000
H    -4.528000000     0.123000000     7.049000000
H    -5.773000000     0.934000000     6.759000000
O    -2.883000000     4.968000000     2.366000000
H    -3.254000000     4.100000000     2.203000000
H    -2.219000000     4.821000000     3.039000000
O    -2.078000000     6.146000000     7.062000000
H    -2.380000000     6.974000000     7.436000000
H    -1.201000000     6.338000000     6.731000000
O    -8.276000000    -0.850000000    -1.603000000
H    -7.348000000    -1.080000000    -1.652000000
H    -8.294000000    -0.030000000    -1.110000000
O    -2.407000000     0.259000000     5.747000000
H    -2.128000000    -0.549000000     5.317000000
H    -2.755000000     0.800000000     5.038000000
O    -4.490000000     3.456000000     5.181000000
H    -5.326000000     3.055000000     5.418000000
H    -4.171000000     2.928000000     4.449000000
O    -0.602000000     1.343000000     7.509000000
H    -0.731000000     2.291000000     7.534000000
H    -1.164000000     1.044000000     6.794000000
O    -4.051000000     7.335000000     1.249000000
H    -3.182000000     6.956000000     1.378000000
H    -4.595000000     6.597000000     0.974000000
O    -0.949000000     3.566000000     4.029000000
H    -1.641000000     2.909000000     4.108000000
H    -0.428000000     3.462000000     4.825000000
O    -1.111000000     8.813000000     3.807000000
H    -1.225000000     7.873000000     3.665000000
H    -1.135000000     9.193000000     2.929000000
O    -6.615000000     1.854000000     4.909000000
H    -7.439000000     2.332000000     4.996000000
H    -6.670000000     1.436000000     4.050000000
O    -4.299000000     6.317000000     4.322000000
H    -3.732000000     5.899000000     3.674000000
H    -4.634000000     5.593000000     4.851000000
O    -5.886000000     5.505000000     0.514000000
H    -5.370000000     5.013000000    -0.125000000
H    -6.057000000     4.879000000     1.218000000
