215
-1483.77618
C    -5.193000000    -1.054000000    -1.398000000
H    -4.959000000    -2.061000000    -1.061000000
C    -4.367000000    -0.579000000    -2.391000000
C    -4.543000000     0.765000000    -2.898000000
H    -3.914000000     1.151000000    -3.696000000
C    -3.159000000    -1.415000000    -2.818000000
O    -3.369000000    -2.894000000    -2.785000000
H    -2.335000000    -1.150000000    -2.140000000
O    -2.694000000    -0.995000000    -4.105000000
C    -1.299000000    -0.803000000    -4.175000000
C    -0.873000000     0.464000000    -4.214000000
H    -1.591000000     1.280000000    -4.215000000
C     0.493000000     0.728000000    -4.308000000
O     0.893000000     2.028000000    -4.255000000
C     1.407000000    -0.331000000    -4.428000000
C     2.878000000    -0.066000000    -4.635000000
H     3.362000000    -0.890000000    -5.163000000
C     3.603000000     0.193000000    -3.351000000
C     4.084000000    -0.941000000    -2.771000000
H     4.225000000    -1.882000000    -3.296000000
H     3.050000000     0.802000000    -5.274000000
C     0.911000000    -1.674000000    -4.507000000
H     1.546000000    -2.535000000    -4.702000000
C    -0.463000000    -1.846000000    -4.392000000
C    -0.974000000    -3.260000000    -4.366000000
H    -0.359000000    -3.892000000    -5.010000000
H    -1.942000000    -3.227000000    -4.871000000
C    -1.120000000    -3.823000000    -2.940000000
C    -0.009000000    -4.358000000    -2.336000000
H     0.890000000    -4.499000000    -2.931000000
C    -2.321000000    -3.619000000    -2.182000000
C    -2.417000000    -4.112000000    -0.906000000
H    -3.307000000    -3.951000000    -0.303000000
C    -1.236000000    -4.528000000    -0.298000000
O    -1.226000000    -4.573000000     1.102000000
C    -0.530000000    -3.606000000     1.825000000
C    -1.330000000    -3.184000000     3.040000000
C    -0.699000000    -2.816000000     4.234000000
H     0.378000000    -2.914000000     4.346000000
C    -2.749000000    -2.973000000     2.936000000
H    -3.205000000    -3.300000000     2.006000000
O     0.730000000    -4.182000000     2.227000000
H    -0.433000000    -2.706000000     1.199000000
C    -0.032000000    -4.743000000    -1.019000000
C     1.174000000    -5.368000000    -0.419000000
H     1.620000000    -5.933000000    -1.241000000
H     0.930000000    -6.056000000     0.393000000
C     2.127000000    -4.294000000     0.211000000
C     3.263000000    -3.900000000    -0.458000000
H     3.470000000    -4.250000000    -1.466000000
C     1.888000000    -3.819000000     1.554000000
C     2.734000000    -2.853000000     2.071000000
H     2.456000000    -2.455000000     3.044000000
C     3.785000000    -2.343000000     1.354000000
O     4.397000000    -1.255000000     1.887000000
C     4.002000000     0.054000000     1.535000000
C     3.998000000     1.014000000     2.717000000
C     3.641000000     0.553000000     3.981000000
H     3.435000000    -0.494000000     4.191000000
C     4.168000000     2.402000000     2.499000000
H     4.367000000     2.727000000     1.481000000
O     4.902000000     0.554000000     0.537000000
H     3.022000000    -0.083000000     1.054000000
C     4.027000000    -2.776000000     0.056000000
C     5.049000000    -2.117000000    -0.786000000
H     5.444000000    -2.843000000    -1.500000000
H     5.984000000    -1.984000000    -0.237000000
C     4.523000000    -0.870000000    -1.430000000
C     4.515000000     0.368000000    -0.772000000
C     4.002000000     1.507000000    -1.404000000
H     3.930000000     2.426000000    -0.827000000
C     3.572000000     1.396000000    -2.698000000
O     2.960000000     2.486000000    -3.313000000
C     1.501000000     2.496000000    -2.994000000
H     1.250000000     1.781000000    -2.197000000
C     0.908000000     3.832000000    -2.505000000
C    -0.377000000     4.202000000    -2.851000000
H    -0.907000000     3.510000000    -3.500000000
C     1.632000000     4.661000000    -1.706000000
H     2.623000000     4.311000000    -1.427000000
C     1.087000000     5.782000000    -1.105000000
O     1.822000000     6.624000000    -0.244000000
C    -0.198000000     6.207000000    -1.434000000
H    -0.697000000     7.040000000    -0.944000000
C    -0.981000000     5.335000000    -2.228000000
O    -2.288000000     5.732000000    -2.394000000
C    -3.110000000     5.092000000    -3.248000000
C    -4.065000000     4.270000000    -2.699000000
H    -4.073000000     4.080000000    -1.629000000
C    -2.893000000     5.085000000    -4.617000000
H    -2.020000000     5.499000000    -5.115000000
C    -3.753000000     4.341000000    -5.470000000
H    -3.709000000     4.361000000    -6.556000000
C    -4.827000000     3.610000000    -4.911000000
H    -5.493000000     3.069000000    -5.577000000
C    -4.916000000     3.550000000    -3.499000000
O    -5.916000000     2.706000000    -2.936000000
C    -5.617000000     1.473000000    -2.410000000
C    -6.439000000     0.976000000    -1.390000000
H    -7.356000000     1.453000000    -1.055000000
C    -6.243000000    -0.319000000    -0.856000000
O    -7.123000000    -0.844000000     0.116000000
C    -6.758000000    -1.873000000     0.959000000
C    -5.951000000    -1.660000000     2.035000000
H    -5.436000000    -0.709000000     2.141000000
C    -7.284000000    -3.124000000     0.655000000
H    -7.902000000    -3.157000000    -0.238000000
C    -6.948000000    -4.228000000     1.478000000
H    -7.295000000    -5.239000000     1.275000000
C    -6.115000000    -3.978000000     2.612000000
H    -5.830000000    -4.803000000     3.261000000
C    -5.686000000    -2.668000000     2.907000000
O    -4.867000000    -2.507000000     4.024000000
C    -3.482000000    -2.516000000     4.056000000
C    -2.828000000    -2.255000000     5.277000000
H    -3.449000000    -1.941000000     6.113000000
C    -1.419000000    -2.320000000     5.340000000
O    -0.820000000    -2.010000000     6.573000000
C     0.477000000    -1.746000000     6.815000000
C     0.975000000    -0.510000000     6.347000000
H     0.364000000     0.230000000     5.836000000
C     1.357000000    -2.688000000     7.395000000
H     1.122000000    -3.701000000     7.710000000
C     2.723000000    -2.331000000     7.469000000
H     3.413000000    -3.088000000     7.835000000
C     3.220000000    -1.110000000     7.015000000
H     4.276000000    -0.882000000     7.133000000
C     2.329000000    -0.174000000     6.526000000
O     2.897000000     1.052000000     6.239000000
C     3.441000000     1.441000000     5.024000000
C     3.586000000     2.830000000     4.854000000
H     3.358000000     3.431000000     5.730000000
C     3.975000000     3.322000000     3.623000000
O     4.025000000     4.610000000     3.349000000
C     4.056000000     5.269000000     2.173000000
C     5.316000000     5.701000000     1.733000000
H     6.259000000     5.452000000     2.213000000
C     5.402000000     6.290000000     0.464000000
H     6.357000000     6.561000000     0.023000000
C     4.186000000     6.726000000    -0.182000000
H     4.198000000     7.429000000    -1.011000000
C     2.936000000     6.334000000     0.367000000
C     2.877000000     5.567000000     1.512000000
H     1.949000000     5.190000000     1.932000000
C    -1.294000000     0.596000000     2.416000000
H    -1.274000000     0.457000000     3.494000000
C    -0.181000000     0.069000000     1.735000000
H     0.699000000    -0.361000000     2.206000000
C    -0.089000000     0.186000000     0.370000000
H     0.788000000    -0.319000000    -0.061000000
C    -1.182000000     0.709000000    -0.344000000
H    -1.150000000     0.588000000    -1.424000000
C    -2.342000000     1.106000000     0.269000000
H    -3.189000000     1.368000000    -0.360000000
C    -2.393000000     1.102000000     1.684000000
C    -3.655000000     1.584000000     2.408000000
O    -4.495000000     2.303000000     1.813000000
O    -3.715000000     1.541000000     3.614000000
O    -1.525000000     5.321000000     2.213000000
H    -1.316000000     5.255000000     3.145000000
H    -0.988000000     4.645000000     1.799000000
O    -5.121000000     1.418000000     7.243000000
H    -5.639000000     0.915000000     6.616000000
H    -4.224000000     1.364000000     6.913000000
O    -9.314000000    -1.628000000     2.742000000
H    -9.217000000    -2.580000000     2.761000000
H    -8.700000000    -1.311000000     3.404000000
O    -4.452000000     6.632000000     5.924000000
H    -4.853000000     6.632000000     5.055000000
H    -5.027000000     6.081000000     6.454000000
O    -6.768000000     2.726000000     2.947000000
H    -6.326000000     2.916000000     3.774000000
H    -6.058000000     2.576000000     2.323000000
O    -0.514000000     5.445000000     4.877000000
H     0.264000000     5.987000000     4.742000000
H    -0.168000000     4.582000000     5.103000000
O    -6.766000000     6.305000000    -0.056000000
H    -6.093000000     5.730000000     0.306000000
H    -7.568000000     5.784000000    -0.026000000
O    -8.197000000    -1.604000000     5.392000000
H    -7.344000000    -1.189000000     5.261000000
H    -8.662000000    -1.013000000     5.984000000
O    -4.377000000     5.027000000     1.450000000
H    -4.516000000     4.108000000     1.679000000
H    -3.458000000     5.191000000     1.660000000
O    -2.586000000     1.167000000     5.909000000
H    -3.035000000     0.944000000     5.093000000
H    -2.391000000     2.101000000     5.827000000
O    -6.109000000     0.112000000     4.793000000
H    -5.308000000    -0.412000000     4.796000000
H    -5.933000000     0.814000000     4.167000000
O    -4.880000000     3.775000000     4.748000000
H    -4.545000000     3.095000000     4.163000000
H    -4.233000000     3.826000000     5.452000000
O     0.459000000     3.198000000     6.026000000
H     1.394000000     2.997000000     6.050000000
H     0.108000000     2.802000000     6.824000000
O     0.306000000     3.134000000     1.624000000
H     1.247000000     2.960000000     1.596000000
H    -0.097000000     2.319000000     1.325000000
O    -6.298000000     5.869000000     3.122000000
H    -6.370000000     5.067000000     3.640000000
H    -5.746000000     5.625000000     2.379000000
O    -1.601000000     7.872000000     1.300000000
H    -2.279000000     8.148000000     1.916000000
H    -1.475000000     6.941000000     1.484000000
O    -9.360000000     2.275000000     4.285000000
H   -10.143000000     2.346000000     3.739000000
H    -8.651000000     2.100000000     3.666000000
O    -2.807000000     4.127000000     6.506000000
H    -2.505000000     4.613000000     5.739000000
H    -2.481000000     4.631000000     7.252000000
O    -8.457000000     3.703000000     0.648000000
H    -8.201000000     3.679000000     1.570000000
H    -8.766000000     2.817000000     0.461000000
