215
-1446.96108
C    -4.763000000    -0.804000000    -1.540000000
H    -4.660000000    -1.704000000    -0.939000000
C    -3.942000000    -0.760000000    -2.666000000
C    -4.104000000     0.309000000    -3.604000000
H    -3.474000000     0.550000000    -4.457000000
C    -2.726000000    -1.730000000    -2.842000000
O    -3.070000000    -3.116000000    -2.469000000
H    -1.915000000    -1.340000000    -2.210000000
O    -2.318000000    -1.693000000    -4.212000000
C    -0.994000000    -1.520000000    -4.471000000
C    -0.434000000    -0.274000000    -4.655000000
H    -1.009000000     0.648000000    -4.651000000
C     0.867000000     0.025000000    -4.552000000
O     1.302000000     1.377000000    -4.498000000
C     1.800000000    -1.011000000    -4.256000000
C     3.296000000    -0.810000000    -4.419000000
H     3.793000000    -1.703000000    -4.802000000
C     3.896000000    -0.477000000    -3.015000000
C     4.336000000    -1.499000000    -2.124000000
H     4.524000000    -2.467000000    -2.583000000
H     3.452000000     0.039000000    -5.088000000
C     1.279000000    -2.306000000    -4.262000000
H     1.987000000    -3.126000000    -4.170000000
C    -0.109000000    -2.541000000    -4.378000000
C    -0.651000000    -3.929000000    -4.006000000
H     0.098000000    -4.638000000    -4.366000000
H    -1.613000000    -4.119000000    -4.486000000
C    -0.848000000    -4.131000000    -2.575000000
C     0.191000000    -4.693000000    -1.778000000
H     1.177000000    -4.795000000    -2.224000000
C    -2.018000000    -3.742000000    -1.845000000
C    -2.214000000    -3.953000000    -0.540000000
H    -3.142000000    -3.674000000    -0.048000000
C    -1.169000000    -4.479000000     0.239000000
O    -1.406000000    -4.525000000     1.567000000
C    -0.708000000    -3.574000000     2.328000000
C    -1.548000000    -3.009000000     3.405000000
C    -1.005000000    -2.706000000     4.638000000
H     0.012000000    -2.978000000     4.909000000
C    -2.849000000    -2.453000000     3.149000000
H    -3.262000000    -2.500000000     2.145000000
O     0.517000000    -4.237000000     2.821000000
H    -0.524000000    -2.702000000     1.683000000
C    -0.021000000    -5.003000000    -0.395000000
C     1.240000000    -5.537000000     0.328000000
H     1.846000000    -6.236000000    -0.252000000
H     0.923000000    -6.160000000     1.168000000
C     2.094000000    -4.472000000     1.041000000
C     3.243000000    -3.992000000     0.359000000
H     3.412000000    -4.345000000    -0.655000000
C     1.736000000    -3.919000000     2.253000000
C     2.430000000    -2.843000000     2.763000000
H     2.090000000    -2.442000000     3.714000000
C     3.531000000    -2.319000000     2.110000000
O     3.990000000    -1.029000000     2.522000000
C     3.750000000     0.211000000     1.772000000
C     3.471000000     1.276000000     2.800000000
C     2.820000000     1.026000000     3.990000000
H     2.624000000    -0.017000000     4.225000000
C     3.828000000     2.579000000     2.509000000
H     4.275000000     2.828000000     1.550000000
O     4.849000000     0.504000000     0.909000000
H     2.819000000     0.136000000     1.191000000
C     3.983000000    -2.881000000     0.910000000
C     5.162000000    -2.331000000     0.144000000
H     5.540000000    -3.017000000    -0.617000000
H     5.986000000    -2.033000000     0.796000000
C     4.752000000    -1.216000000    -0.815000000
C     4.608000000     0.130000000    -0.383000000
C     4.127000000     1.187000000    -1.206000000
H     4.097000000     2.170000000    -0.742000000
C     3.800000000     0.923000000    -2.549000000
O     3.207000000     1.942000000    -3.257000000
C     1.768000000     1.810000000    -3.223000000
H     1.574000000     1.158000000    -2.359000000
C     1.081000000     3.116000000    -2.784000000
C    -0.221000000     3.415000000    -3.194000000
H    -0.702000000     2.708000000    -3.866000000
C     1.654000000     4.041000000    -1.900000000
H     2.586000000     3.810000000    -1.392000000
C     1.047000000     5.230000000    -1.563000000
O     1.504000000     6.186000000    -0.638000000
C    -0.252000000     5.564000000    -2.026000000
H    -0.830000000     6.472000000    -1.873000000
C    -0.905000000     4.614000000    -2.826000000
O    -2.237000000     4.919000000    -3.125000000
C    -2.901000000     4.409000000    -4.211000000
C    -4.080000000     3.651000000    -3.924000000
H    -4.344000000     3.421000000    -2.895000000
C    -2.431000000     4.519000000    -5.538000000
H    -1.527000000     5.111000000    -5.655000000
C    -3.058000000     3.798000000    -6.551000000
H    -2.626000000     3.808000000    -7.548000000
C    -4.213000000     3.023000000    -6.226000000
H    -4.584000000     2.337000000    -6.984000000
C    -4.685000000     2.931000000    -4.902000000
O    -5.580000000     2.004000000    -4.581000000
C    -5.265000000     1.018000000    -3.566000000
C    -6.132000000     0.929000000    -2.483000000
H    -6.916000000     1.632000000    -2.214000000
C    -5.788000000     0.115000000    -1.419000000
O    -6.750000000     0.030000000    -0.384000000
C    -6.520000000    -0.919000000     0.643000000
C    -5.769000000    -0.640000000     1.795000000
H    -5.331000000     0.335000000     1.992000000
C    -7.175000000    -2.150000000     0.499000000
H    -7.673000000    -2.431000000    -0.426000000
C    -6.968000000    -3.160000000     1.457000000
H    -7.461000000    -4.128000000     1.405000000
C    -6.279000000    -2.850000000     2.596000000
H    -6.134000000    -3.597000000     3.372000000
C    -5.633000000    -1.597000000     2.736000000
O    -4.912000000    -1.331000000     3.856000000
C    -3.654000000    -1.946000000     4.170000000
C    -3.147000000    -1.851000000     5.447000000
H    -3.786000000    -1.481000000     6.245000000
C    -1.808000000    -2.199000000     5.668000000
O    -1.244000000    -1.806000000     6.894000000
C    -0.038000000    -1.184000000     6.933000000
C     0.274000000    -0.005000000     6.293000000
H    -0.363000000     0.482000000     5.560000000
C     0.952000000    -1.749000000     7.794000000
H     0.776000000    -2.701000000     8.289000000
C     2.183000000    -1.158000000     8.015000000
H     2.862000000    -1.600000000     8.739000000
C     2.405000000     0.095000000     7.362000000
H     3.344000000     0.600000000     7.575000000
C     1.493000000     0.648000000     6.451000000
O     1.661000000     1.884000000     5.964000000
C     2.441000000     2.087000000     4.850000000
C     3.005000000     3.359000000     4.646000000
H     2.765000000     4.153000000     5.348000000
C     3.655000000     3.646000000     3.432000000
O     4.000000000     4.979000000     3.215000000
C     3.983000000     5.654000000     1.990000000
C     5.077000000     6.376000000     1.516000000
H     5.942000000     6.541000000     2.154000000
C     4.965000000     7.019000000     0.235000000
H     5.822000000     7.501000000    -0.229000000
C     3.769000000     6.829000000    -0.511000000
H     3.621000000     7.291000000    -1.484000000
C     2.704000000     6.141000000     0.005000000
C     2.822000000     5.561000000     1.280000000
H     1.940000000     5.164000000     1.776000000
C    -1.346000000     0.845000000     1.690000000
H    -1.408000000     0.799000000     2.774000000
C    -0.344000000     0.004000000     1.121000000
H     0.379000000    -0.541000000     1.722000000
C    -0.143000000     0.031000000    -0.287000000
H     0.637000000    -0.505000000    -0.767000000
C    -1.065000000     0.694000000    -1.080000000
H    -0.978000000     0.539000000    -2.152000000
C    -2.087000000     1.459000000    -0.541000000
H    -2.733000000     2.087000000    -1.150000000
C    -2.213000000     1.532000000     0.864000000
C    -3.204000000     2.450000000     1.525000000
O    -3.996000000     3.131000000     0.942000000
O    -3.128000000     2.586000000     2.739000000
O     0.313000000     6.803000000     3.863000000
H    -0.186000000     6.564000000     4.644000000
H    -0.075000000     6.282000000     3.161000000
O    -1.014000000     4.950000000     1.481000000
H    -0.524000000     4.143000000     1.636000000
H    -1.477000000     4.795000000     0.658000000
O    -4.689000000     4.654000000     6.603000000
H    -4.959000000     3.744000000     6.721000000
H    -4.926000000     4.859000000     5.698000000
O    -5.979000000     2.132000000     7.021000000
H    -5.788000000     1.347000000     7.534000000
H    -5.664000000     1.926000000     6.141000000
O    -6.642000000     2.954000000     1.324000000
H    -6.637000000     2.355000000     0.577000000
H    -5.739000000     3.264000000     1.387000000
O    -6.848000000     5.607000000    -1.438000000
H    -6.015000000     5.642000000    -0.968000000
H    -6.696000000     6.117000000    -2.234000000
O    -8.423000000     3.320000000    -1.701000000
H    -8.757000000     3.099000000    -0.831000000
H    -7.988000000     4.164000000    -1.583000000
O    -3.419000000     6.465000000     2.623000000
H    -2.729000000     5.855000000     2.362000000
H    -3.876000000     6.018000000     3.336000000
O    -2.158000000     3.649000000     4.928000000
H    -2.298000000     3.391000000     4.017000000
H    -2.622000000     2.986000000     5.439000000
O    -3.424000000     7.914000000    -2.103000000
H    -3.383000000     7.285000000    -1.383000000
H    -3.603000000     7.380000000    -2.877000000
O    -4.328000000     1.332000000     4.670000000
H    -3.824000000     1.698000000     3.943000000
H    -4.391000000     0.398000000     4.472000000
O    -4.913000000     4.431000000     3.821000000
H    -4.426000000     3.780000000     3.316000000
H    -5.833000000     4.238000000     3.637000000
O    -0.404000000     4.913000000     6.740000000
H    -0.767000000     4.474000000     7.510000000
H    -0.882000000     4.535000000     6.002000000
O    -7.971000000     1.196000000     3.222000000
H    -8.551000000     0.599000000     2.749000000
H    -7.669000000     1.814000000     2.557000000
O    -4.651000000     5.706000000     0.252000000
H    -4.548000000     6.070000000     1.131000000
H    -4.160000000     4.884000000     0.274000000
O     0.764000000     2.956000000     0.942000000
H     0.521000000     2.059000000     0.713000000
H     1.719000000     2.940000000     0.995000000
O    -7.852000000     4.569000000     3.613000000
H    -7.992000000     3.805000000     3.053000000
H    -8.217000000     5.301000000     3.114000000
O    -7.595000000    -0.625000000     5.218000000
H    -8.505000000    -0.867000000     5.048000000
H    -7.438000000     0.130000000     4.651000000
O    -4.004000000     8.889000000     3.516000000
H    -4.586000000     9.236000000     2.839000000
H    -3.775000000     8.012000000     3.208000000
