215
-1473.54241
C    -4.959000000    -1.415000000    -1.210000000
H    -5.004000000    -2.440000000    -0.851000000
C    -4.062000000    -0.944000000    -2.119000000
C    -4.091000000     0.373000000    -2.568000000
H    -3.475000000     0.801000000    -3.355000000
C    -2.849000000    -1.711000000    -2.537000000
O    -3.116000000    -3.186000000    -2.493000000
H    -2.044000000    -1.398000000    -1.856000000
O    -2.427000000    -1.346000000    -3.839000000
C    -1.089000000    -1.220000000    -4.153000000
C    -0.587000000     0.029000000    -4.397000000
H    -1.257000000     0.882000000    -4.465000000
C     0.742000000     0.253000000    -4.585000000
O     1.144000000     1.567000000    -4.720000000
C     1.654000000    -0.808000000    -4.600000000
C     3.172000000    -0.536000000    -4.630000000
H     3.718000000    -1.384000000    -5.050000000
C     3.671000000    -0.149000000    -3.207000000
C     4.180000000    -1.134000000    -2.343000000
H     4.301000000    -2.160000000    -2.682000000
H     3.508000000     0.262000000    -5.295000000
C     1.153000000    -2.049000000    -4.478000000
H     1.796000000    -2.925000000    -4.441000000
C    -0.201000000    -2.306000000    -4.257000000
C    -0.662000000    -3.762000000    -4.126000000
H     0.085000000    -4.401000000    -4.603000000
H    -1.608000000    -3.925000000    -4.647000000
C    -0.901000000    -4.153000000    -2.674000000
C     0.249000000    -4.469000000    -1.958000000
H     1.177000000    -4.483000000    -2.524000000
C    -2.081000000    -3.942000000    -1.986000000
C    -2.064000000    -4.122000000    -0.610000000
H    -3.027000000    -4.042000000    -0.111000000
C    -1.005000000    -4.549000000     0.108000000
O    -1.167000000    -4.625000000     1.509000000
C    -0.386000000    -3.720000000     2.349000000
C    -1.237000000    -3.219000000     3.558000000
C    -0.606000000    -2.671000000     4.666000000
H     0.479000000    -2.603000000     4.694000000
C    -2.637000000    -3.066000000     3.432000000
H    -3.058000000    -3.291000000     2.455000000
O     0.811000000    -4.226000000     2.811000000
H    -0.179000000    -2.857000000     1.700000000
C     0.236000000    -4.783000000    -0.612000000
C     1.417000000    -5.258000000     0.168000000
H     2.014000000    -5.707000000    -0.629000000
H     1.158000000    -6.107000000     0.805000000
C     2.263000000    -4.229000000     0.847000000
C     3.290000000    -3.615000000     0.161000000
H     3.582000000    -4.002000000    -0.811000000
C     1.968000000    -3.867000000     2.191000000
C     2.697000000    -2.794000000     2.774000000
H     2.437000000    -2.338000000     3.726000000
C     3.709000000    -2.124000000     2.011000000
O     4.139000000    -0.847000000     2.417000000
C     3.657000000     0.353000000     1.774000000
C     3.329000000     1.451000000     2.748000000
C     2.952000000     1.108000000     4.018000000
H     2.768000000     0.096000000     4.369000000
C     3.451000000     2.778000000     2.327000000
H     3.497000000     3.110000000     1.293000000
O     4.589000000     0.780000000     0.775000000
H     2.683000000     0.043000000     1.369000000
C     4.059000000    -2.613000000     0.727000000
C     5.144000000    -1.999000000    -0.121000000
H     5.673000000    -2.722000000    -0.747000000
H     5.900000000    -1.574000000     0.541000000
C     4.562000000    -0.870000000    -1.031000000
C     4.406000000     0.437000000    -0.558000000
C     3.939000000     1.498000000    -1.365000000
H     3.819000000     2.474000000    -0.902000000
C     3.542000000     1.143000000    -2.669000000
O     2.937000000     2.118000000    -3.435000000
C     1.532000000     2.190000000    -3.505000000
H     1.084000000     1.651000000    -2.658000000
C     1.130000000     3.677000000    -3.399000000
C    -0.122000000     4.001000000    -3.896000000
H    -0.830000000     3.265000000    -4.265000000
C     1.912000000     4.588000000    -2.810000000
H     2.829000000     4.295000000    -2.305000000
C     1.339000000     5.844000000    -2.543000000
O     2.022000000     6.721000000    -1.747000000
C     0.128000000     6.220000000    -3.063000000
H    -0.254000000     7.232000000    -2.964000000
C    -0.639000000     5.323000000    -3.749000000
O    -1.963000000     5.637000000    -4.212000000
C    -2.899000000     4.717000000    -4.468000000
C    -3.600000000     4.032000000    -3.434000000
H    -3.271000000     4.118000000    -2.402000000
C    -3.431000000     4.546000000    -5.767000000
H    -3.044000000     5.039000000    -6.655000000
C    -4.409000000     3.642000000    -6.089000000
H    -4.795000000     3.450000000    -7.087000000
C    -5.007000000     2.918000000    -5.085000000
H    -5.796000000     2.215000000    -5.336000000
C    -4.647000000     3.117000000    -3.727000000
O    -5.349000000     2.530000000    -2.682000000
C    -5.178000000     1.221000000    -2.216000000
C    -6.035000000     0.769000000    -1.232000000
H    -6.835000000     1.377000000    -0.816000000
C    -5.934000000    -0.528000000    -0.719000000
O    -6.936000000    -0.884000000     0.179000000
C    -6.621000000    -1.826000000     1.113000000
C    -5.638000000    -1.540000000     2.090000000
H    -5.206000000    -0.544000000     2.143000000
C    -7.481000000    -2.900000000     1.184000000
H    -8.281000000    -2.940000000     0.449000000
C    -7.334000000    -3.844000000     2.202000000
H    -8.002000000    -4.694000000     2.315000000
C    -6.295000000    -3.625000000     3.102000000
H    -6.034000000    -4.435000000     3.779000000
C    -5.538000000    -2.446000000     3.176000000
O    -4.750000000    -2.265000000     4.285000000
C    -3.389000000    -2.608000000     4.472000000
C    -2.779000000    -2.228000000     5.633000000
H    -3.452000000    -1.735000000     6.329000000
C    -1.373000000    -2.272000000     5.787000000
O    -0.794000000    -1.794000000     6.881000000
C     0.449000000    -1.221000000     6.981000000
C     0.664000000     0.103000000     6.498000000
H    -0.192000000     0.630000000     6.085000000
C     1.447000000    -1.942000000     7.660000000
H     1.224000000    -2.907000000     8.109000000
C     2.700000000    -1.330000000     7.898000000
H     3.506000000    -1.822000000     8.435000000
C     2.982000000    -0.043000000     7.449000000
H     3.906000000     0.491000000     7.656000000
C     1.951000000     0.616000000     6.723000000
O     2.203000000     1.819000000     6.202000000
C     2.683000000     2.101000000     4.957000000
C     2.742000000     3.420000000     4.566000000
H     2.422000000     4.228000000     5.219000000
C     3.170000000     3.782000000     3.235000000
O     3.011000000     5.143000000     2.795000000
C     3.480000000     5.597000000     1.458000000
C     4.829000000     5.459000000     1.129000000
H     5.458000000     5.030000000     1.904000000
C     5.208000000     5.856000000    -0.126000000
H     6.282000000     5.863000000    -0.292000000
C     4.312000000     6.210000000    -1.144000000
H     4.570000000     6.405000000    -2.181000000
C     2.963000000     6.324000000    -0.865000000
C     2.574000000     6.064000000     0.459000000
H     1.543000000     6.060000000     0.805000000
C    -1.116000000     0.212000000     1.945000000
H    -1.421000000     0.071000000     2.979000000
C     0.114000000    -0.354000000     1.537000000
H     0.709000000    -0.966000000     2.210000000
C     0.460000000    -0.365000000     0.169000000
H     1.363000000    -0.912000000    -0.208000000
C    -0.400000000     0.173000000    -0.781000000
H    -0.125000000     0.180000000    -1.833000000
C    -1.611000000     0.844000000    -0.381000000
H    -2.193000000     1.468000000    -1.054000000
C    -1.938000000     0.863000000     0.969000000
C    -2.932000000     1.806000000     1.625000000
O    -3.916000000     2.091000000     0.974000000
O    -2.696000000     2.348000000     2.722000000
O    -1.770000000     5.228000000     2.430000000
H    -2.683000000     5.006000000     2.613000000
H    -1.274000000     4.467000000     2.731000000
O    -7.766000000     3.681000000     0.346000000
H    -8.610000000     3.336000000     0.636000000
H    -7.920000000     4.618000000     0.223000000
O    -0.984000000     5.288000000    -0.318000000
H    -1.292000000     4.989000000     0.538000000
H    -0.149000000     4.837000000    -0.442000000
O    -3.876000000     4.331000000     6.479000000
H    -4.350000000     3.594000000     6.865000000
H    -3.984000000     4.216000000     5.535000000
O    -5.435000000     1.738000000     6.706000000
H    -5.749000000     0.990000000     7.213000000
H    -5.072000000     1.352000000     5.908000000
O    -6.112000000     1.817000000     2.529000000
H    -6.732000000     1.257000000     2.061000000
H    -5.482000000     2.087000000     1.861000000
O    -0.229000000     8.098000000    -0.247000000
H    -0.645000000     7.238000000    -0.194000000
H     0.688000000     7.934000000    -0.026000000
O    -0.267000000     3.388000000     3.528000000
H    -0.816000000     2.678000000     3.195000000
H    -0.617000000     3.573000000     4.400000000
O    -3.402000000     6.825000000    -0.856000000
H    -4.071000000     6.151000000    -0.745000000
H    -2.573000000     6.347000000    -0.833000000
O    -4.272000000     0.839000000     4.467000000
H    -4.972000000     1.153000000     3.895000000
H    -3.511000000     1.368000000     4.227000000
O    -4.338000000     4.181000000     3.793000000
H    -3.960000000     3.380000000     3.431000000
H    -5.240000000     4.186000000     3.472000000
O    -0.651000000     3.695000000     6.205000000
H    -0.037000000     3.231000000     6.775000000
H    -1.416000000     3.855000000     6.758000000
O    -7.828000000     2.914000000     4.297000000
H    -8.450000000     2.187000000     4.302000000
H    -7.320000000     2.789000000     3.495000000
O    -4.680000000     4.379000000    -0.163000000
H    -5.404000000     4.191000000    -0.760000000
H    -4.449000000     3.528000000     0.210000000
O     0.641000000     2.796000000     0.734000000
H     1.103000000     2.845000000     1.571000000
H     0.189000000     1.953000000     0.759000000
O    -6.041000000     6.392000000     1.680000000
H    -5.635000000     5.696000000     1.163000000
H    -6.561000000     6.888000000     1.049000000
O    -0.006000000     6.990000000     3.115000000
H    -0.664000000     7.567000000     3.503000000
H    -0.515000000     6.337000000     2.633000000
O    -4.690000000     7.316000000     4.023000000
H    -5.119000000     7.041000000     3.213000000
H    -4.579000000     6.507000000     4.522000000
O    -9.062000000     1.056000000     1.244000000
H    -9.807000000     0.640000000     1.678000000
H    -8.761000000     0.405000000     0.609000000
