215
-1457.68000
C    -5.123000000    -2.291000000    -0.633000000
H    -4.926000000    -3.264000000    -0.191000000
C    -4.253000000    -1.679000000    -1.604000000
C    -4.544000000    -0.419000000    -2.114000000
H    -3.936000000     0.069000000    -2.872000000
C    -3.063000000    -2.492000000    -2.050000000
O    -3.086000000    -3.835000000    -1.532000000
H    -2.160000000    -2.008000000    -1.647000000
O    -2.884000000    -2.482000000    -3.464000000
C    -1.609000000    -2.276000000    -3.911000000
C    -1.304000000    -1.056000000    -4.469000000
H    -2.013000000    -0.246000000    -4.618000000
C     0.025000000    -0.597000000    -4.584000000
O     0.220000000     0.690000000    -4.810000000
C     1.046000000    -1.548000000    -4.414000000
C     2.501000000    -1.252000000    -4.672000000
H     3.013000000    -2.142000000    -5.042000000
C     3.188000000    -0.668000000    -3.502000000
C     3.953000000    -1.483000000    -2.642000000
H     4.099000000    -2.555000000    -2.750000000
H     2.647000000    -0.682000000    -5.591000000
C     0.749000000    -2.886000000    -4.025000000
H     1.509000000    -3.661000000    -3.976000000
C    -0.622000000    -3.239000000    -3.781000000
C    -0.906000000    -4.618000000    -3.217000000
H    -0.166000000    -5.348000000    -3.551000000
H    -1.916000000    -4.902000000    -3.518000000
C    -0.802000000    -4.513000000    -1.682000000
C     0.443000000    -4.748000000    -1.037000000
H     1.347000000    -5.082000000    -1.541000000
C    -1.948000000    -4.356000000    -0.934000000
C    -1.863000000    -4.313000000     0.440000000
H    -2.728000000    -4.067000000     1.050000000
C    -0.619000000    -4.438000000     1.094000000
O    -0.683000000    -4.010000000     2.419000000
C    -0.149000000    -2.763000000     2.802000000
C    -0.978000000    -1.992000000     3.932000000
C    -0.336000000    -1.129000000     4.867000000
H     0.717000000    -0.949000000     4.664000000
C    -2.350000000    -2.132000000     3.962000000
H    -2.779000000    -2.767000000     3.191000000
O     1.207000000    -2.933000000     3.242000000
H    -0.252000000    -2.145000000     1.897000000
C     0.458000000    -4.775000000     0.323000000
C     1.759000000    -5.050000000     1.022000000
H     2.421000000    -5.765000000     0.530000000
H     1.538000000    -5.439000000     2.018000000
C     2.550000000    -3.763000000     1.206000000
C     3.541000000    -3.450000000     0.254000000
H     3.739000000    -4.086000000    -0.605000000
C     2.307000000    -2.943000000     2.320000000
C     3.134000000    -1.857000000     2.547000000
H     2.913000000    -1.086000000     3.282000000
C     4.070000000    -1.491000000     1.555000000
O     4.654000000    -0.228000000     1.606000000
C     4.077000000     0.858000000     0.928000000
C     4.004000000     2.055000000     1.883000000
C     3.813000000     1.926000000     3.250000000
H     3.947000000     0.910000000     3.613000000
C     3.984000000     3.377000000     1.299000000
H     4.108000000     3.536000000     0.231000000
O     4.832000000     1.181000000    -0.237000000
H     3.028000000     0.663000000     0.660000000
C     4.318000000    -2.280000000     0.477000000
C     5.251000000    -1.796000000    -0.637000000
H     5.619000000    -2.655000000    -1.202000000
H     6.116000000    -1.322000000    -0.169000000
C     4.542000000    -0.825000000    -1.579000000
C     4.441000000     0.532000000    -1.338000000
C     3.726000000     1.358000000    -2.217000000
H     3.620000000     2.432000000    -2.086000000
C     3.113000000     0.730000000    -3.258000000
O     2.255000000     1.544000000    -3.914000000
C     0.818000000     1.456000000    -3.727000000
H     0.714000000     1.073000000    -2.701000000
C     0.410000000     2.907000000    -3.546000000
C    -0.894000000     3.269000000    -3.801000000
H    -1.587000000     2.530000000    -4.195000000
C     1.251000000     3.979000000    -3.189000000
H     2.293000000     3.765000000    -2.967000000
C     0.757000000     5.302000000    -3.028000000
O     1.548000000     6.375000000    -2.680000000
C    -0.596000000     5.603000000    -3.232000000
H    -0.964000000     6.597000000    -2.990000000
C    -1.422000000     4.563000000    -3.676000000
O    -2.802000000     4.780000000    -3.795000000
C    -3.752000000     3.783000000    -3.962000000
C    -4.396000000     3.201000000    -2.898000000
H    -4.265000000     3.633000000    -1.909000000
C    -3.840000000     3.291000000    -5.196000000
H    -3.118000000     3.600000000    -5.947000000
C    -4.787000000     2.287000000    -5.484000000
H    -4.804000000     1.817000000    -6.464000000
C    -5.575000000     1.743000000    -4.442000000
H    -6.214000000     0.876000000    -4.588000000
C    -5.341000000     2.168000000    -3.164000000
O    -5.969000000     1.553000000    -2.098000000
C    -5.609000000     0.311000000    -1.615000000
C    -6.413000000    -0.226000000    -0.659000000
H    -7.209000000     0.333000000    -0.174000000
C    -6.178000000    -1.548000000    -0.184000000
O    -7.033000000    -2.064000000     0.781000000
C    -6.575000000    -2.472000000     1.974000000
C    -5.907000000    -1.569000000     2.821000000
H    -5.753000000    -0.533000000     2.532000000
C    -6.731000000    -3.779000000     2.355000000
H    -7.304000000    -4.462000000     1.732000000
C    -6.299000000    -4.183000000     3.575000000
H    -6.506000000    -5.185000000     3.941000000
C    -5.625000000    -3.338000000     4.414000000
H    -5.287000000    -3.584000000     5.417000000
C    -5.386000000    -2.040000000     3.983000000
O    -4.549000000    -1.256000000     4.783000000
C    -3.142000000    -1.243000000     4.742000000
C    -2.565000000    -0.354000000     5.605000000
H    -3.201000000     0.391000000     6.076000000
C    -1.176000000    -0.360000000     5.717000000
O    -0.562000000     0.605000000     6.535000000
C     0.790000000     0.720000000     6.575000000
C     1.434000000     1.742000000     5.907000000
H     0.834000000     2.537000000     5.471000000
C     1.517000000    -0.282000000     7.202000000
H     0.997000000    -1.141000000     7.618000000
C     2.952000000    -0.313000000     7.108000000
H     3.526000000    -1.039000000     7.679000000
C     3.569000000     0.743000000     6.532000000
H     4.653000000     0.824000000     6.500000000
C     2.816000000     1.784000000     5.980000000
O     3.391000000     2.872000000     5.341000000
C     3.605000000     3.025000000     4.046000000
C     3.660000000     4.263000000     3.461000000
H     3.446000000     5.159000000     4.038000000
C     3.873000000     4.482000000     2.103000000
O     3.823000000     5.751000000     1.618000000
C     3.817000000     5.978000000     0.242000000
C     4.977000000     6.080000000    -0.481000000
H     5.907000000     6.003000000     0.076000000
C     5.019000000     6.319000000    -1.874000000
H     5.960000000     6.462000000    -2.400000000
C     3.828000000     6.403000000    -2.547000000
H     3.754000000     6.621000000    -3.609000000
C     2.613000000     6.216000000    -1.842000000
C     2.621000000     6.117000000    -0.447000000
H     1.665000000     5.966000000     0.048000000
C    -0.568000000     0.814000000     2.041000000
H    -0.156000000     1.213000000     2.964000000
C     0.290000000     0.207000000     1.127000000
H     1.240000000    -0.129000000     1.535000000
C    -0.259000000    -0.191000000    -0.089000000
H     0.383000000    -0.705000000    -0.803000000
C    -1.639000000     0.062000000    -0.429000000
H    -2.003000000    -0.189000000    -1.422000000
C    -2.479000000     0.643000000     0.527000000
H    -3.539000000     0.808000000     0.353000000
C    -1.943000000     0.962000000     1.804000000
C    -2.691000000     1.587000000     2.986000000
O    -3.836000000     1.825000000     2.804000000
O    -2.078000000     2.139000000     3.869000000
O     0.291000000     7.264000000     5.363000000
H     0.391000000     6.369000000     5.685000000
H    -0.654000000     7.379000000     5.263000000
O    -2.516000000     5.713000000     2.321000000
H    -3.234000000     5.262000000     2.765000000
H    -1.726000000     5.269000000     2.631000000
O    -7.776000000     5.121000000     0.765000000
H    -7.435000000     5.946000000     1.110000000
H    -7.002000000     4.570000000     0.653000000
O    -2.003000000     6.009000000    -0.288000000
H    -2.199000000     5.941000000     0.646000000
H    -1.152000000     5.582000000    -0.387000000
O    -1.074000000     8.132000000     1.742000000
H    -1.389000000     7.231000000     1.679000000
H    -1.868000000     8.666000000     1.725000000
O    -3.236000000     7.018000000     6.306000000
H    -3.759000000     7.667000000     5.836000000
H    -3.023000000     6.359000000     5.645000000
O    -3.724000000     3.774000000     8.560000000
H    -4.575000000     3.358000000     8.422000000
H    -3.367000000     3.887000000     7.679000000
O    -5.428000000     1.263000000     4.983000000
H    -5.415000000     0.330000000     4.772000000
H    -4.928000000     1.675000000     4.277000000
O    -0.521000000     4.035000000     3.437000000
H    -1.057000000     3.247000000     3.347000000
H    -0.541000000     4.232000000     4.373000000
O    -4.684000000     5.657000000    -0.443000000
H    -4.909000000     4.822000000    -0.032000000
H    -3.729000000     5.698000000    -0.395000000
O    -1.878000000     1.812000000     9.187000000
H    -2.558000000     2.471000000     9.046000000
H    -1.207000000     2.018000000     8.536000000
O    -3.001000000     3.589000000     5.976000000
H    -3.892000000     3.712000000     5.648000000
H    -2.611000000     2.952000000     5.377000000
O    -4.554000000     4.277000000     3.523000000
H    -4.422000000     3.333000000     3.439000000
H    -5.459000000     4.418000000     3.245000000
O    -0.490000000     4.819000000     6.238000000
H    -0.126000000     4.454000000     7.044000000
H    -1.438000000     4.733000000     6.342000000
O    -5.312000000     3.189000000     0.967000000
H    -5.446000000     2.485000000     0.332000000
H    -4.605000000     2.873000000     1.530000000
O     0.373000000     4.240000000     0.701000000
H    -0.005000000     4.023000000     1.553000000
H     0.929000000     3.491000000     0.487000000
O    -7.730000000     1.568000000     6.488000000
H    -7.863000000     0.639000000     6.678000000
H    -6.974000000     1.586000000     5.901000000
O    -7.297000000     4.218000000     3.640000000
H    -7.874000000     3.660000000     3.119000000
H    -7.749000000     4.315000000     4.478000000
O    -8.849000000     2.308000000     1.852000000
H    -9.675000000     1.892000000     1.605000000
H    -8.322000000     2.285000000     1.053000000
