215
-1447.42832
C    -0.821000000    -0.261000000    -5.563000000
H    -1.504000000    -1.072000000    -5.323000000
C     0.433000000    -0.202000000    -5.034000000
C     1.180000000     0.964000000    -5.338000000
H     2.161000000     1.096000000    -4.889000000
C     0.948000000    -1.184000000    -4.031000000
O     0.472000000    -2.487000000    -4.445000000
H     0.696000000    -0.857000000    -3.011000000
O     2.388000000    -1.293000000    -4.057000000
C     3.156000000    -1.428000000    -2.963000000
C     3.652000000    -0.290000000    -2.331000000
H     3.466000000     0.661000000    -2.825000000
C     4.282000000    -0.273000000    -1.088000000
O     4.446000000     0.947000000    -0.440000000
C     4.392000000    -1.490000000    -0.407000000
C     5.166000000    -1.531000000     0.834000000
H     5.633000000    -2.518000000     0.860000000
C     4.228000000    -1.371000000     2.009000000
C     3.525000000    -2.459000000     2.558000000
H     3.592000000    -3.455000000     2.128000000
H     5.958000000    -0.779000000     0.811000000
C     4.047000000    -2.662000000    -1.059000000
H     4.195000000    -3.527000000    -0.418000000
C     3.333000000    -2.647000000    -2.302000000
C     2.722000000    -3.890000000    -2.901000000
H     3.268000000    -4.685000000    -2.389000000
H     2.805000000    -4.016000000    -3.983000000
C     1.258000000    -3.925000000    -2.631000000
C     0.894000000    -4.781000000    -1.545000000
H     1.645000000    -5.292000000    -0.949000000
C     0.282000000    -3.343000000    -3.441000000
C    -1.047000000    -3.552000000    -3.081000000
H    -1.860000000    -3.078000000    -3.624000000
C    -1.374000000    -4.145000000    -1.809000000
O    -2.615000000    -3.888000000    -1.287000000
C    -2.790000000    -2.840000000    -0.318000000
C    -3.992000000    -2.038000000    -0.677000000
C    -4.452000000    -1.076000000     0.270000000
H    -3.861000000    -0.956000000     1.175000000
C    -4.588000000    -2.074000000    -1.917000000
H    -4.169000000    -2.767000000    -2.642000000
O    -2.966000000    -3.472000000     0.967000000
H    -1.895000000    -2.200000000    -0.298000000
C    -0.408000000    -4.824000000    -1.061000000
C    -0.899000000    -5.391000000     0.246000000
H    -0.180000000    -6.207000000     0.348000000
H    -1.890000000    -5.829000000     0.109000000
C    -0.812000000    -4.496000000     1.396000000
C     0.306000000    -4.538000000     2.226000000
H     1.124000000    -5.198000000     1.948000000
C    -1.854000000    -3.610000000     1.756000000
C    -1.741000000    -2.747000000     2.854000000
H    -2.525000000    -2.043000000     3.121000000
C    -0.615000000    -2.799000000     3.606000000
O    -0.532000000    -1.985000000     4.672000000
C     0.115000000    -0.716000000     4.411000000
C    -0.645000000     0.458000000     4.949000000
C    -2.009000000     0.595000000     4.716000000
H    -2.633000000    -0.173000000     4.267000000
C     0.026000000     1.447000000     5.625000000
H     1.064000000     1.360000000     5.938000000
O     1.407000000    -0.803000000     4.970000000
H     0.131000000    -0.414000000     3.353000000
C     0.452000000    -3.642000000     3.227000000
C     1.753000000    -3.580000000     4.022000000
H     2.325000000    -4.496000000     3.862000000
H     1.613000000    -3.632000000     5.104000000
C     2.644000000    -2.349000000     3.655000000
C     2.418000000    -1.078000000     4.169000000
C     3.057000000     0.079000000     3.677000000
H     2.778000000     1.064000000     4.044000000
C     3.930000000    -0.105000000     2.560000000
O     4.472000000     0.948000000     1.870000000
C     3.683000000     1.320000000     0.712000000
H     2.749000000     0.743000000     0.641000000
C     3.350000000     2.846000000     0.632000000
C     3.103000000     3.408000000    -0.572000000
H     3.041000000     2.777000000    -1.455000000
C     3.162000000     3.595000000     1.818000000
H     3.327000000     3.125000000     2.785000000
C     2.647000000     4.893000000     1.742000000
O     2.416000000     5.671000000     2.862000000
C     2.465000000     5.483000000     0.468000000
H     2.049000000     6.487000000     0.476000000
C     2.664000000     4.739000000    -0.692000000
O     2.340000000     5.215000000    -1.975000000
C     2.851000000     4.572000000    -3.105000000
C     1.954000000     4.128000000    -4.079000000
H     0.889000000     4.140000000    -3.859000000
C     4.220000000     4.465000000    -3.378000000
H     4.892000000     4.927000000    -2.659000000
C     4.685000000     3.936000000    -4.571000000
H     5.745000000     3.906000000    -4.812000000
C     3.812000000     3.494000000    -5.572000000
H     4.228000000     3.031000000    -6.463000000
C     2.434000000     3.606000000    -5.293000000
O     1.477000000     3.177000000    -6.244000000
C     0.661000000     2.061000000    -6.010000000
C    -0.679000000     1.919000000    -6.504000000
H    -1.109000000     2.770000000    -7.026000000
C    -1.414000000     0.774000000    -6.277000000
O    -2.723000000     0.687000000    -6.774000000
C    -3.681000000    -0.191000000    -6.354000000
C    -4.335000000    -0.148000000    -5.115000000
H    -4.118000000     0.675000000    -4.439000000
C    -4.016000000    -1.190000000    -7.301000000
H    -3.634000000    -1.187000000    -8.318000000
C    -5.058000000    -2.069000000    -7.004000000
H    -5.438000000    -2.698000000    -7.805000000
C    -5.620000000    -1.997000000    -5.746000000
H    -6.301000000    -2.808000000    -5.502000000
C    -5.331000000    -1.059000000    -4.805000000
O    -6.012000000    -1.069000000    -3.611000000
C    -5.508000000    -1.102000000    -2.300000000
C    -6.020000000    -0.157000000    -1.376000000
H    -6.640000000     0.693000000    -1.647000000
C    -5.516000000    -0.188000000    -0.038000000
O    -5.853000000     0.847000000     0.861000000
C    -5.897000000     0.651000000     2.188000000
C    -5.160000000     1.543000000     3.005000000
H    -4.703000000     2.437000000     2.589000000
C    -6.503000000    -0.445000000     2.744000000
H    -7.126000000    -1.033000000     2.075000000
C    -6.580000000    -0.536000000     4.143000000
H    -7.089000000    -1.349000000     4.654000000
C    -5.645000000     0.219000000     4.927000000
H    -5.582000000     0.065000000     6.001000000
C    -4.909000000     1.185000000     4.280000000
O    -3.957000000     2.008000000     4.871000000
C    -2.686000000     1.687000000     5.225000000
C    -1.976000000     2.686000000     5.824000000
H    -2.490000000     3.561000000     6.216000000
C    -0.621000000     2.653000000     5.967000000
O     0.132000000     3.607000000     6.568000000
C     1.241000000     4.102000000     5.999000000
C     2.375000000     4.239000000     6.790000000
H     2.320000000     4.025000000     7.854000000
C     3.559000000     4.852000000     6.297000000
H     4.458000000     4.954000000     6.899000000
C     3.539000000     5.308000000     4.979000000
H     4.277000000     5.965000000     4.526000000
C     2.392000000     5.162000000     4.146000000
C     1.237000000     4.566000000     4.657000000
H     0.326000000     4.507000000     4.067000000
C    -2.071000000     1.289000000    -0.438000000
H    -3.117000000     1.395000000    -0.161000000
C    -1.312000000     0.588000000     0.425000000
H    -1.814000000     0.196000000     1.306000000
C     0.004000000     0.311000000     0.128000000
H     0.646000000    -0.357000000     0.636000000
C     0.480000000     0.889000000    -1.089000000
H     1.525000000     0.773000000    -1.365000000
C    -0.337000000     1.622000000    -2.008000000
H     0.080000000     1.934000000    -2.962000000
C    -1.644000000     1.845000000    -1.674000000
C    -2.667000000     2.546000000    -2.620000000
O    -2.217000000     3.049000000    -3.648000000
O    -3.785000000     2.823000000    -2.326000000
O    -7.043000000     7.112000000    -4.284000000
H    -6.690000000     7.975000000    -4.500000000
H    -6.376000000     6.497000000    -4.591000000
O    -2.165000000     7.765000000    -6.363000000
H    -1.855000000     7.180000000    -5.672000000
H    -2.365000000     8.585000000    -5.911000000
O    -8.292000000     1.615000000    -4.705000000
H    -7.472000000     1.961000000    -4.354000000
H    -8.953000000     2.258000000    -4.449000000
O     1.474000000     8.016000000    -1.776000000
H     0.915000000     7.246000000    -1.872000000
H     1.336000000     8.301000000    -0.872000000
O    -8.142000000     2.858000000    -1.778000000
H    -8.511000000     2.533000000    -0.957000000
H    -8.883000000     2.877000000    -2.383000000
O    -4.551000000     5.913000000    -4.709000000
H    -4.036000000     5.895000000    -3.902000000
H    -4.464000000     5.030000000    -5.068000000
O    -6.830000000     6.165000000     0.638000000
H    -6.367000000     5.343000000     0.798000000
H    -6.285000000     6.627000000     0.002000000
O    -1.632000000     6.649000000     3.032000000
H    -2.262000000     6.259000000     3.638000000
H    -1.547000000     6.007000000     2.328000000
O    -4.215000000     3.808000000    -7.960000000
H    -4.207000000     3.811000000    -7.003000000
H    -4.961000000     3.254000000    -8.191000000
O    -1.136000000     5.173000000     0.781000000
H    -0.969000000     4.275000000     0.493000000
H    -0.470000000     5.695000000     0.334000000
O    -1.511000000     5.425000000    -4.578000000
H    -1.951000000     5.863000000    -3.850000000
H    -1.404000000     4.520000000    -4.284000000
O    -4.236000000     3.370000000    -5.258000000
H    -3.436000000     3.120000000    -4.796000000
H    -4.937000000     2.925000000    -4.782000000
O    -6.012000000     2.486000000    -3.571000000
H    -6.625000000     2.695000000    -2.866000000
H    -5.176000000     2.344000000    -3.127000000
O    -1.183000000     7.103000000    -1.641000000
H    -1.932000000     6.544000000    -1.848000000
H    -1.158000000     7.743000000    -2.352000000
O    -5.977000000     7.253000000    -1.765000000
H    -5.852000000     8.202000000    -1.733000000
H    -6.393000000     7.096000000    -2.613000000
O     0.718000000     6.464000000    -6.364000000
H     0.093000000     6.368000000    -7.083000000
H     0.219000000     6.233000000    -5.580000000
O    -8.617000000     5.591000000    -1.369000000
H    -7.894000000     5.722000000    -0.756000000
H    -8.334000000     4.862000000    -1.921000000
O    -3.538000000     5.537000000    -2.127000000
H    -4.203000000     5.842000000    -1.509000000
H    -3.703000000     4.598000000    -2.212000000
O    -5.433000000     3.698000000    -0.270000000
H    -4.992000000     3.497000000    -1.095000000
H    -5.818000000     2.866000000     0.004000000
