215
-1430.40737
C    -4.561000000    -2.688000000    -1.748000000
H    -4.322000000    -3.497000000    -1.062000000
C    -3.583000000    -2.223000000    -2.637000000
C    -3.896000000    -1.178000000    -3.543000000
H    -3.102000000    -0.828000000    -4.198000000
C    -2.176000000    -2.684000000    -2.625000000
O    -2.057000000    -4.022000000    -2.065000000
H    -1.661000000    -1.970000000    -1.965000000
O    -1.575000000    -2.767000000    -3.952000000
C    -0.189000000    -2.328000000    -3.940000000
C     0.062000000    -0.934000000    -4.200000000
H    -0.758000000    -0.236000000    -4.347000000
C     1.334000000    -0.447000000    -4.270000000
O     1.535000000     0.926000000    -4.381000000
C     2.388000000    -1.270000000    -3.929000000
C     3.889000000    -0.929000000    -3.790000000
H     4.582000000    -1.771000000    -3.851000000
C     4.155000000    -0.197000000    -2.472000000
C     4.482000000    -0.971000000    -1.376000000
H     4.633000000    -2.044000000    -1.467000000
H     4.208000000    -0.215000000    -4.552000000
C     2.182000000    -2.609000000    -3.627000000
H     3.029000000    -3.271000000    -3.467000000
C     0.885000000    -3.146000000    -3.579000000
C     0.624000000    -4.551000000    -3.146000000
H     1.534000000    -5.154000000    -3.152000000
H    -0.078000000    -5.207000000    -3.664000000
C     0.243000000    -4.596000000    -1.591000000
C     1.217000000    -4.835000000    -0.627000000
H     2.250000000    -4.975000000    -0.935000000
C    -1.074000000    -4.384000000    -1.208000000
C    -1.367000000    -4.395000000     0.163000000
H    -2.365000000    -4.185000000     0.537000000
C    -0.386000000    -4.572000000     1.140000000
O    -0.742000000    -4.324000000     2.420000000
C    -0.520000000    -3.005000000     2.884000000
C    -1.726000000    -2.330000000     3.602000000
C    -1.425000000    -1.481000000     4.620000000
H    -0.387000000    -1.267000000     4.861000000
C    -3.055000000    -2.489000000     3.194000000
H    -3.318000000    -3.204000000     2.419000000
O     0.675000000    -3.075000000     3.762000000
H    -0.258000000    -2.332000000     2.054000000
C     0.923000000    -4.729000000     0.728000000
C     2.045000000    -4.896000000     1.760000000
H     2.798000000    -5.412000000     1.161000000
H     1.740000000    -5.582000000     2.553000000
C     2.536000000    -3.593000000     2.293000000
C     3.656000000    -3.091000000     1.702000000
H     4.164000000    -3.696000000     0.955000000
C     1.843000000    -2.745000000     3.173000000
C     2.358000000    -1.496000000     3.561000000
H     1.773000000    -0.840000000     4.201000000
C     3.439000000    -0.971000000     2.845000000
O     3.700000000     0.410000000     3.062000000
C     3.415000000     1.409000000     2.023000000
C     3.060000000     2.708000000     2.724000000
C     2.319000000     2.654000000     3.921000000
H     2.017000000     1.660000000     4.240000000
C     3.312000000     3.901000000     2.085000000
H     3.821000000     3.861000000     1.125000000
O     4.633000000     1.628000000     1.220000000
H     2.512000000     1.234000000     1.420000000
C     4.103000000    -1.780000000     1.888000000
C     5.273000000    -1.269000000     0.984000000
H     5.895000000    -2.039000000     0.523000000
H     6.025000000    -0.844000000     1.652000000
C     4.744000000    -0.384000000    -0.144000000
C     4.655000000     1.013000000     0.000000000
C     4.384000000     1.857000000    -1.126000000
H     4.202000000     2.912000000    -0.934000000
C     3.968000000     1.243000000    -2.363000000
O     3.135000000     1.992000000    -3.214000000
C     1.771000000     1.804000000    -3.264000000
H     1.487000000     1.366000000    -2.296000000
C     1.005000000     3.081000000    -3.393000000
C    -0.355000000     3.031000000    -3.748000000
H    -0.743000000     2.037000000    -3.957000000
C     1.418000000     4.272000000    -2.776000000
H     2.462000000     4.211000000    -2.482000000
C     0.615000000     5.368000000    -2.558000000
O     1.097000000     6.493000000    -1.899000000
C    -0.673000000     5.340000000    -3.079000000
H    -1.273000000     6.235000000    -2.934000000
C    -1.177000000     4.175000000    -3.641000000
O    -2.533000000     4.114000000    -3.934000000
C    -3.057000000     3.164000000    -4.742000000
C    -3.993000000     2.342000000    -4.136000000
H    -4.196000000     2.551000000    -3.089000000
C    -2.695000000     2.993000000    -6.044000000
H    -1.940000000     3.574000000    -6.568000000
C    -3.217000000     1.896000000    -6.800000000
H    -2.935000000     1.731000000    -7.836000000
C    -4.134000000     1.035000000    -6.200000000
H    -4.481000000     0.163000000    -6.749000000
C    -4.498000000     1.257000000    -4.885000000
O    -5.416000000     0.501000000    -4.347000000
C    -5.104000000    -0.547000000    -3.439000000
C    -6.049000000    -1.047000000    -2.613000000
H    -7.041000000    -0.604000000    -2.657000000
C    -5.789000000    -2.045000000    -1.786000000
O    -6.900000000    -2.468000000    -1.027000000
C    -6.613000000    -3.040000000     0.210000000
C    -6.195000000    -2.256000000     1.302000000
H    -5.939000000    -1.204000000     1.206000000
C    -6.955000000    -4.403000000     0.344000000
H    -7.211000000    -5.057000000    -0.485000000
C    -6.645000000    -4.995000000     1.558000000
H    -6.763000000    -6.068000000     1.686000000
C    -6.201000000    -4.228000000     2.672000000
H    -6.006000000    -4.744000000     3.608000000
C    -6.023000000    -2.884000000     2.564000000
O    -5.518000000    -2.218000000     3.607000000
C    -4.133000000    -1.864000000     3.861000000
C    -3.785000000    -0.947000000     4.864000000
H    -4.555000000    -0.316000000     5.299000000
C    -2.463000000    -0.796000000     5.256000000
O    -2.243000000     0.242000000     6.123000000
C    -0.948000000     0.717000000     6.352000000
C    -0.565000000     1.979000000     5.807000000
H    -1.182000000     2.546000000     5.115000000
C    -0.110000000     0.015000000     7.176000000
H    -0.479000000    -0.892000000     7.647000000
C     1.153000000     0.542000000     7.475000000
H     1.806000000     0.049000000     8.191000000
C     1.540000000     1.787000000     6.936000000
H     2.467000000     2.202000000     7.325000000
C     0.701000000     2.506000000     6.105000000
O     1.199000000     3.697000000     5.678000000
C     1.909000000     3.770000000     4.516000000
C     2.251000000     4.993000000     3.962000000
H     1.854000000     5.945000000     4.306000000
C     2.900000000     5.070000000     2.711000000
O     3.206000000     6.248000000     2.162000000
C     3.331000000     6.376000000     0.823000000
C     4.555000000     6.463000000     0.209000000
H     5.436000000     6.543000000     0.841000000
C     4.665000000     6.496000000    -1.186000000
H     5.623000000     6.534000000    -1.700000000
C     3.449000000     6.421000000    -1.906000000
H     3.377000000     6.408000000    -2.990000000
C     2.225000000     6.428000000    -1.235000000
C     2.180000000     6.364000000     0.100000000
H     1.228000000     6.064000000     0.529000000
C    -2.010000000     0.920000000     1.810000000
H    -2.192000000     1.133000000     2.861000000
C    -0.758000000     0.291000000     1.440000000
H     0.012000000     0.054000000     2.169000000
C    -0.486000000     0.051000000     0.107000000
H     0.464000000    -0.432000000    -0.058000000
C    -1.354000000     0.390000000    -0.948000000
H    -1.140000000     0.167000000    -1.990000000
C    -2.572000000     1.002000000    -0.592000000
H    -3.339000000     1.316000000    -1.296000000
C    -2.911000000     1.252000000     0.821000000
C    -4.192000000     1.929000000     1.193000000
O    -4.919000000     2.412000000     0.362000000
O    -4.423000000     2.163000000     2.348000000
O    -1.116000000     5.390000000     0.213000000
H    -1.879000000     5.081000000    -0.276000000
H    -0.529000000     4.634000000     0.242000000
O    -6.891000000     7.113000000     1.621000000
H    -6.611000000     7.913000000     2.065000000
H    -6.221000000     6.468000000     1.844000000
O    -3.873000000     4.621000000    -1.116000000
H    -4.345000000     4.089000000    -0.475000000
H    -4.557000000     5.126000000    -1.557000000
O    -9.042000000    -0.947000000     0.534000000
H    -8.298000000    -0.350000000     0.457000000
H    -8.820000000    -1.681000000    -0.039000000
O    -7.614000000    -0.512000000     3.376000000
H    -8.166000000    -1.051000000     2.809000000
H    -6.880000000    -1.082000000     3.606000000
O    -6.158000000     1.097000000     6.999000000
H    -6.344000000     0.164000000     6.899000000
H    -6.069000000     1.421000000     6.102000000
O    -6.137000000     1.711000000     4.329000000
H    -6.538000000     0.966000000     3.881000000
H    -5.508000000     2.060000000     3.697000000
O    -7.509000000     2.975000000     1.839000000
H    -7.061000000     2.324000000     1.300000000
H    -6.804000000     3.445000000     2.285000000
O    -1.149000000     5.524000000     3.725000000
H    -1.543000000     4.785000000     4.189000000
H    -1.266000000     5.315000000     2.799000000
O    -7.743000000     5.942000000    -0.635000000
H    -7.521000000     6.368000000     0.193000000
H    -6.948000000     6.017000000    -1.164000000
O    -6.850000000     2.520000000    -2.550000000
H    -6.664000000     3.281000000    -3.101000000
H    -6.141000000     2.511000000    -1.907000000
O    -7.890000000     3.563000000     5.779000000
H    -7.181000000     4.127000000     6.087000000
H    -7.504000000     3.064000000     5.060000000
O    -9.470000000     2.188000000    -1.744000000
H    -9.567000000     2.738000000    -0.967000000
H    -8.576000000     2.353000000    -2.044000000
O    -3.297000000     3.507000000     4.366000000
H    -4.089000000     3.660000000     4.882000000
H    -3.592000000     2.976000000     3.626000000
O    -3.638000000     7.165000000     1.657000000
H    -3.431000000     7.889000000     2.249000000
H    -3.868000000     7.590000000     0.831000000
O    -5.374000000     4.839000000     1.856000000
H    -4.558000000     5.338000000     1.817000000
H    -5.099000000     3.924000000     1.792000000
O    -6.792000000     0.753000000     0.170000000
H    -6.005000000     1.262000000     0.365000000
H    -7.075000000     1.069000000    -0.689000000
O     0.520000000     3.220000000     0.220000000
H     0.173000000     2.433000000    -0.201000000
H     0.961000000     2.896000000     1.006000000
O    -9.423000000     3.958000000     0.207000000
H    -8.938000000     3.618000000     0.958000000
H    -8.840000000     4.612000000    -0.179000000
