215
-1472.53507
C    -4.817000000    -1.739000000    -1.092000000
H    -4.541000000    -2.294000000    -0.198000000
C    -3.927000000    -1.835000000    -2.186000000
C    -4.201000000    -0.916000000    -3.254000000
H    -3.497000000    -0.775000000    -4.070000000
C    -2.591000000    -2.608000000    -2.134000000
O    -2.797000000    -3.906000000    -1.633000000
H    -1.817000000    -2.105000000    -1.537000000
O    -2.006000000    -2.850000000    -3.452000000
C    -0.715000000    -2.566000000    -3.685000000
C    -0.385000000    -1.285000000    -4.055000000
H    -1.166000000    -0.547000000    -4.220000000
C     0.937000000    -0.942000000    -4.287000000
O     1.218000000     0.329000000    -4.627000000
C     1.931000000    -1.898000000    -4.162000000
C     3.408000000    -1.598000000    -4.276000000
H     4.043000000    -2.470000000    -4.449000000
C     3.824000000    -0.947000000    -2.988000000
C     4.203000000    -1.723000000    -1.883000000
H     4.329000000    -2.791000000    -2.040000000
H     3.676000000    -0.875000000    -5.050000000
C     1.588000000    -3.189000000    -3.685000000
H     2.422000000    -3.860000000    -3.495000000
C     0.281000000    -3.535000000    -3.388000000
C    -0.096000000    -4.858000000    -2.726000000
H     0.799000000    -5.477000000    -2.812000000
H    -0.897000000    -5.354000000    -3.278000000
C    -0.589000000    -4.764000000    -1.237000000
C     0.384000000    -5.001000000    -0.320000000
H     1.344000000    -5.316000000    -0.719000000
C    -1.846000000    -4.294000000    -0.792000000
C    -2.168000000    -4.184000000     0.558000000
H    -3.080000000    -3.695000000     0.891000000
C    -1.131000000    -4.574000000     1.460000000
O    -1.258000000    -4.222000000     2.794000000
C    -0.680000000    -3.014000000     3.234000000
C    -1.529000000    -2.333000000     4.313000000
C    -0.983000000    -1.565000000     5.369000000
H     0.085000000    -1.570000000     5.575000000
C    -2.868000000    -2.115000000     3.994000000
H    -3.250000000    -2.660000000     3.135000000
O     0.555000000    -3.263000000     3.808000000
H    -0.588000000    -2.311000000     2.394000000
C     0.087000000    -4.987000000     1.018000000
C     1.297000000    -5.203000000     1.946000000
H     1.933000000    -6.041000000     1.657000000
H     1.002000000    -5.463000000     2.965000000
C     2.055000000    -3.906000000     2.067000000
C     3.170000000    -3.577000000     1.318000000
H     3.417000000    -4.333000000     0.576000000
C     1.596000000    -3.002000000     2.991000000
C     2.322000000    -1.773000000     3.151000000
H     1.980000000    -1.079000000     3.915000000
C     3.444000000    -1.407000000     2.357000000
O     3.939000000    -0.139000000     2.501000000
C     3.733000000     0.900000000     1.526000000
C     3.352000000     2.231000000     2.071000000
C     2.408000000     2.298000000     3.111000000
H     1.979000000     1.339000000     3.390000000
C     3.870000000     3.438000000     1.590000000
H     4.620000000     3.371000000     0.805000000
O     4.905000000     0.854000000     0.709000000
H     2.913000000     0.471000000     0.932000000
C     3.818000000    -2.340000000     1.364000000
C     4.976000000    -1.988000000     0.477000000
H     5.318000000    -2.924000000     0.030000000
H     5.846000000    -1.620000000     1.026000000
C     4.552000000    -1.101000000    -0.670000000
C     4.700000000     0.288000000    -0.546000000
C     4.252000000     1.071000000    -1.596000000
H     3.938000000     2.097000000    -1.426000000
C     3.889000000     0.454000000    -2.800000000
O     3.221000000     1.266000000    -3.715000000
C     1.794000000     1.206000000    -3.576000000
H     1.522000000     0.923000000    -2.548000000
C     1.183000000     2.638000000    -3.693000000
C    -0.124000000     2.708000000    -4.122000000
H    -0.684000000     1.792000000    -4.292000000
C     1.895000000     3.775000000    -3.308000000
H     2.969000000     3.725000000    -3.151000000
C     1.231000000     5.031000000    -3.241000000
O     1.800000000     6.224000000    -2.811000000
C    -0.105000000     5.071000000    -3.533000000
H    -0.646000000     6.008000000    -3.428000000
C    -0.779000000     3.965000000    -4.081000000
O    -2.104000000     4.085000000    -4.287000000
C    -2.908000000     3.177000000    -5.037000000
C    -3.937000000     2.614000000    -4.330000000
H    -4.306000000     2.916000000    -3.353000000
C    -2.657000000     2.844000000    -6.325000000
H    -1.929000000     3.474000000    -6.830000000
C    -3.311000000     1.790000000    -6.912000000
H    -3.025000000     1.406000000    -7.887000000
C    -4.272000000     1.091000000    -6.184000000
H    -4.683000000     0.178000000    -6.607000000
C    -4.573000000     1.523000000    -4.856000000
O    -5.618000000     0.916000000    -4.117000000
C    -5.335000000    -0.086000000    -3.150000000
C    -6.305000000    -0.291000000    -2.131000000
H    -7.210000000     0.306000000    -2.215000000
C    -6.047000000    -1.136000000    -1.123000000
O    -6.866000000    -1.095000000     0.022000000
C    -6.703000000    -1.785000000     1.186000000
C    -5.839000000    -1.131000000     2.071000000
H    -5.329000000    -0.198000000     1.849000000
C    -7.206000000    -3.027000000     1.421000000
H    -7.938000000    -3.512000000     0.781000000
C    -6.933000000    -3.638000000     2.627000000
H    -7.371000000    -4.604000000     2.866000000
C    -6.247000000    -2.944000000     3.662000000
H    -6.158000000    -3.344000000     4.669000000
C    -5.623000000    -1.734000000     3.347000000
O    -4.942000000    -0.936000000     4.247000000
C    -3.720000000    -1.286000000     4.738000000
C    -3.141000000    -0.701000000     5.881000000
H    -3.810000000    -0.124000000     6.515000000
C    -1.772000000    -0.732000000     6.131000000
O    -1.168000000     0.090000000     7.099000000
C    -0.136000000     0.992000000     6.933000000
C    -0.115000000     1.888000000     5.883000000
H    -0.901000000     1.862000000     5.132000000
C     0.856000000     0.912000000     7.862000000
H     0.862000000     0.161000000     8.648000000
C     1.997000000     1.669000000     7.681000000
H     2.834000000     1.637000000     8.373000000
C     2.104000000     2.500000000     6.604000000
H     3.020000000     3.071000000     6.476000000
C     0.994000000     2.683000000     5.717000000
O     1.034000000     3.565000000     4.666000000
C     1.965000000     3.539000000     3.656000000
C     2.546000000     4.708000000     3.161000000
H     2.143000000     5.682000000     3.428000000
C     3.459000000     4.670000000     2.106000000
O     3.941000000     5.807000000     1.553000000
C     3.916000000     6.106000000     0.188000000
C     5.052000000     6.758000000    -0.289000000
H     5.932000000     6.844000000     0.343000000
C     5.124000000     7.162000000    -1.647000000
H     6.050000000     7.625000000    -1.980000000
C     4.068000000     6.883000000    -2.498000000
H     4.146000000     7.139000000    -3.551000000
C     2.938000000     6.236000000    -1.998000000
C     2.919000000     5.764000000    -0.708000000
H     2.073000000     5.225000000    -0.289000000
C    -2.257000000     0.698000000     1.828000000
H    -2.691000000     0.867000000     2.810000000
C    -0.975000000     0.216000000     1.789000000
H    -0.401000000    -0.128000000     2.646000000
C    -0.374000000    -0.076000000     0.563000000
H     0.572000000    -0.623000000     0.425000000
C    -1.036000000     0.175000000    -0.636000000
H    -0.455000000     0.001000000    -1.539000000
C    -2.210000000     0.878000000    -0.597000000
H    -2.733000000     1.138000000    -1.514000000
C    -2.863000000     1.115000000     0.615000000
C    -4.188000000     1.936000000     0.673000000
O    -4.446000000     2.607000000    -0.336000000
O    -4.775000000     2.065000000     1.717000000
O    -0.151000000     6.404000000     0.605000000
H     0.000000000     5.539000000     0.223000000
H    -1.103000000     6.501000000     0.609000000
O    -9.425000000     4.098000000    -0.092000000
H    -9.101000000     4.281000000     0.790000000
H    -8.634000000     3.948000000    -0.611000000
O    -2.545000000     3.953000000    -1.365000000
H    -3.081000000     4.661000000    -1.721000000
H    -3.177000000     3.334000000    -1.000000000
O    -9.080000000     0.768000000    -0.213000000
H    -8.251000000     0.293000000    -0.149000000
H    -8.903000000     1.476000000    -0.833000000
O    -5.696000000     4.157000000     5.448000000
H    -5.067000000     4.780000000     5.085000000
H    -5.560000000     3.357000000     4.940000000
O    -7.393000000     2.022000000     1.705000000
H    -7.744000000     2.783000000     2.167000000
H    -6.443000000     2.129000000     1.752000000
O    -2.668000000     5.091000000     5.063000000
H    -3.199000000     5.864000000     4.870000000
H    -2.291000000     4.843000000     4.219000000
O    -7.185000000     4.992000000     2.556000000
H    -8.113000000     5.217000000     2.614000000
H    -6.875000000     5.015000000     3.461000000
O    -5.292000000     5.116000000     0.751000000
H    -5.029000000     4.228000000     0.512000000
H    -5.969000000     4.995000000     1.417000000
O    -2.405000000     8.254000000    -0.946000000
H    -2.906000000     7.459000000    -1.130000000
H    -2.956000000     8.748000000    -0.339000000
O    -7.249000000     0.616000000     6.341000000
H    -7.335000000     1.525000000     6.628000000
H    -7.511000000     0.629000000     5.420000000
O    -7.233000000     4.141000000    -3.348000000
H    -7.142000000     3.601000000    -2.563000000
H    -7.900000000     4.788000000    -3.119000000
O    -4.742000000     8.001000000     1.284000000
H    -4.647000000     7.061000000     1.135000000
H    -5.530000000     8.079000000     1.823000000
O    -5.070000000     1.886000000     4.279000000
H    -5.102000000     0.948000000     4.469000000
H    -4.798000000     1.936000000     3.363000000
O    -1.258000000     3.862000000     2.880000000
H    -1.253000000     3.659000000     1.945000000
H    -0.396000000     3.585000000     3.191000000
O    -7.106000000     2.579000000    -0.934000000
H    -6.152000000     2.503000000    -0.927000000
H    -7.382000000     2.206000000    -0.097000000
O    -4.064000000     6.289000000    -1.645000000
H    -4.812000000     6.416000000    -2.228000000
H    -4.450000000     5.995000000    -0.820000000
O    -0.266000000     2.964000000     0.235000000
H    -0.903000000     3.234000000    -0.426000000
H    -0.174000000     2.020000000     0.107000000
O    -8.697000000     0.666000000     3.647000000
H    -7.948000000     0.883000000     3.092000000
H    -9.460000000     0.807000000     3.086000000
