215
-1465.47918
C    -4.935000000    -1.966000000    -1.087000000
H    -4.912000000    -2.724000000    -0.308000000
C    -3.986000000    -1.958000000    -2.088000000
C    -4.178000000    -1.007000000    -3.124000000
H    -3.511000000    -0.937000000    -3.980000000
C    -2.675000000    -2.716000000    -2.096000000
O    -2.735000000    -3.910000000    -1.210000000
H    -1.909000000    -2.001000000    -1.763000000
O    -2.318000000    -3.114000000    -3.465000000
C    -0.964000000    -2.943000000    -3.762000000
C    -0.530000000    -1.743000000    -4.303000000
H    -1.244000000    -1.036000000    -4.718000000
C     0.839000000    -1.436000000    -4.271000000
O     1.161000000    -0.173000000    -4.788000000
C     1.744000000    -2.312000000    -3.847000000
C     3.262000000    -2.056000000    -4.023000000
H     3.811000000    -2.997000000    -4.101000000
C     3.641000000    -1.227000000    -2.841000000
C     4.321000000    -1.826000000    -1.745000000
H     4.301000000    -2.901000000    -1.584000000
H     3.399000000    -1.444000000    -4.917000000
C     1.300000000    -3.517000000    -3.341000000
H     2.070000000    -4.177000000    -2.950000000
C    -0.031000000    -3.844000000    -3.206000000
C    -0.328000000    -5.124000000    -2.376000000
H     0.419000000    -5.901000000    -2.548000000
H    -1.248000000    -5.618000000    -2.697000000
C    -0.425000000    -4.815000000    -0.947000000
C     0.532000000    -5.106000000     0.056000000
H     1.456000000    -5.589000000    -0.251000000
C    -1.631000000    -4.206000000    -0.457000000
C    -1.849000000    -3.896000000     0.877000000
H    -2.760000000    -3.348000000     1.104000000
C    -0.854000000    -4.156000000     1.830000000
O    -1.141000000    -3.712000000     3.141000000
C    -0.322000000    -2.507000000     3.460000000
C    -1.275000000    -1.584000000     4.267000000
C    -0.861000000    -0.825000000     5.374000000
H     0.149000000    -1.032000000     5.719000000
C    -2.594000000    -1.381000000     3.787000000
H    -2.841000000    -1.890000000     2.859000000
O     0.901000000    -2.767000000     4.075000000
H     0.002000000    -1.930000000     2.581000000
C     0.384000000    -4.713000000     1.424000000
C     1.619000000    -5.016000000     2.288000000
H     2.326000000    -5.710000000     1.828000000
H     1.285000000    -5.477000000     3.219000000
C     2.412000000    -3.716000000     2.390000000
C     3.485000000    -3.426000000     1.519000000
H     3.832000000    -4.129000000     0.766000000
C     2.071000000    -2.699000000     3.347000000
C     2.801000000    -1.524000000     3.423000000
H     2.482000000    -0.759000000     4.126000000
C     3.886000000    -1.253000000     2.573000000
O     4.348000000     0.058000000     2.618000000
C     3.870000000     1.040000000     1.586000000
C     3.496000000     2.373000000     2.144000000
C     2.743000000     2.461000000     3.316000000
H     2.327000000     1.519000000     3.666000000
C     3.930000000     3.555000000     1.528000000
H     4.578000000     3.499000000     0.657000000
O     4.828000000     1.089000000     0.525000000
H     2.933000000     0.639000000     1.173000000
C     4.202000000    -2.193000000     1.588000000
C     5.319000000    -1.826000000     0.623000000
H     5.894000000    -2.681000000     0.264000000
H     6.083000000    -1.206000000     1.097000000
C     4.717000000    -1.082000000    -0.599000000
C     4.553000000     0.323000000    -0.648000000
C     3.919000000     0.978000000    -1.698000000
H     3.799000000     2.059000000    -1.700000000
C     3.471000000     0.203000000    -2.815000000
O     2.931000000     0.910000000    -3.835000000
C     1.521000000     0.846000000    -3.782000000
H     1.229000000     0.446000000    -2.800000000
C     0.955000000     2.223000000    -4.071000000
C    -0.046000000     2.349000000    -5.012000000
H    -0.356000000     1.505000000    -5.623000000
C     1.350000000     3.324000000    -3.323000000
H     2.198000000     3.408000000    -2.648000000
C     0.629000000     4.548000000    -3.404000000
O     1.016000000     5.593000000    -2.580000000
C    -0.392000000     4.631000000    -4.323000000
H    -1.004000000     5.529000000    -4.352000000
C    -0.746000000     3.522000000    -5.088000000
O    -1.864000000     3.608000000    -5.881000000
C    -2.762000000     2.613000000    -6.016000000
C    -3.729000000     2.386000000    -5.017000000
H    -3.767000000     2.916000000    -4.069000000
C    -2.657000000     1.879000000    -7.190000000
H    -1.915000000     2.130000000    -7.943000000
C    -3.452000000     0.745000000    -7.257000000
H    -3.459000000     0.138000000    -8.159000000
C    -4.326000000     0.440000000    -6.245000000
H    -4.991000000    -0.420000000    -6.260000000
C    -4.470000000     1.242000000    -5.151000000
O    -5.404000000     0.779000000    -4.204000000
C    -5.186000000    -0.102000000    -3.174000000
C    -6.106000000    -0.145000000    -2.179000000
H    -6.943000000     0.538000000    -2.049000000
C    -5.989000000    -1.030000000    -1.123000000
O    -6.940000000    -1.064000000    -0.076000000
C    -6.722000000    -1.429000000     1.254000000
C    -5.732000000    -0.790000000     1.986000000
H    -5.098000000    -0.040000000     1.522000000
C    -7.602000000    -2.290000000     1.883000000
H    -8.442000000    -2.766000000     1.385000000
C    -7.432000000    -2.720000000     3.155000000
H    -7.948000000    -3.527000000     3.668000000
C    -6.371000000    -2.176000000     3.905000000
H    -6.197000000    -2.601000000     4.890000000
C    -5.583000000    -1.123000000     3.369000000
O    -4.787000000    -0.341000000     4.141000000
C    -3.434000000    -0.466000000     4.450000000
C    -3.005000000     0.183000000     5.671000000
H    -3.642000000     0.892000000     6.193000000
C    -1.724000000    -0.024000000     6.131000000
O    -1.212000000     0.647000000     7.212000000
C    -0.112000000     1.412000000     7.157000000
C     0.080000000     2.278000000     6.102000000
H    -0.707000000     2.629000000     5.440000000
C     0.907000000     1.204000000     8.072000000
H     0.762000000     0.451000000     8.842000000
C     2.121000000     1.901000000     7.901000000
H     2.883000000     1.759000000     8.663000000
C     2.333000000     2.765000000     6.863000000
H     3.308000000     3.241000000     6.801000000
C     1.317000000     2.981000000     5.993000000
O     1.560000000     3.898000000     4.959000000
C     2.424000000     3.688000000     3.920000000
C     2.767000000     4.885000000     3.223000000
H     2.425000000     5.876000000     3.513000000
C     3.450000000     4.801000000     2.017000000
O     3.619000000     5.955000000     1.324000000
C     3.583000000     6.066000000    -0.060000000
C     4.780000000     6.194000000    -0.774000000
H     5.749000000     6.323000000    -0.299000000
C     4.714000000     6.113000000    -2.144000000
H     5.596000000     6.361000000    -2.729000000
C     3.473000000     5.882000000    -2.759000000
H     3.463000000     5.913000000    -3.846000000
C     2.316000000     5.753000000    -2.029000000
C     2.391000000     5.880000000    -0.658000000
H     1.518000000     5.849000000    -0.012000000
C    -1.893000000     1.574000000     1.308000000
H    -2.204000000     2.235000000     2.114000000
C    -0.724000000     0.834000000     1.251000000
H    -0.146000000     0.718000000     2.164000000
C    -0.417000000     0.143000000     0.086000000
H     0.385000000    -0.606000000     0.133000000
C    -1.121000000     0.377000000    -1.076000000
H    -0.842000000    -0.146000000    -1.987000000
C    -2.250000000     1.198000000    -1.040000000
H    -2.822000000     1.338000000    -1.953000000
C    -2.691000000     1.772000000     0.174000000
C    -3.944000000     2.551000000     0.297000000
O    -4.413000000     3.045000000    -0.714000000
O    -4.476000000     2.855000000     1.373000000
O    -1.270000000     8.538000000    -1.027000000
H    -2.134000000     8.654000000    -1.421000000
H    -1.381000000     7.809000000    -0.417000000
O    -1.092000000     6.472000000     0.927000000
H    -0.727000000     5.639000000     1.225000000
H    -2.019000000     6.426000000     1.163000000
O    -2.301000000     4.551000000    -1.647000000
H    -2.503000000     5.342000000    -2.147000000
H    -3.152000000     4.143000000    -1.490000000
O    -7.088000000     4.197000000     6.014000000
H    -6.865000000     5.092000000     6.271000000
H    -6.284000000     3.852000000     5.626000000
O    -7.153000000     3.555000000     0.803000000
H    -7.054000000     4.248000000     1.456000000
H    -6.262000000     3.238000000     0.654000000
O    -9.814000000     4.322000000    -0.009000000
H    -9.721000000     5.180000000    -0.423000000
H    -8.933000000     4.107000000     0.297000000
O    -3.759000000     7.880000000     1.700000000
H    -4.254000000     7.369000000     1.061000000
H    -4.274000000     8.678000000     1.819000000
O    -6.713000000     5.449000000     2.887000000
H    -6.939000000     6.146000000     3.503000000
H    -6.415000000     4.727000000     3.441000000
O    -5.108000000     5.806000000     0.684000000
H    -4.797000000     4.925000000     0.476000000
H    -5.680000000     5.685000000     1.443000000
O    -6.878000000     5.785000000    -3.438000000
H    -7.665000000     5.261000000    -3.290000000
H    -7.182000000     6.536000000    -3.948000000
O    -7.973000000     2.246000000    -4.016000000
H    -7.572000000     2.373000000    -3.156000000
H    -8.448000000     3.061000000    -4.181000000
O    -3.146000000     3.199000000     4.523000000
H    -2.631000000     3.446000000     3.755000000
H    -3.858000000     2.663000000     4.172000000
O    -7.386000000     7.462000000    -0.051000000
H    -6.586000000     6.967000000     0.126000000
H    -7.457000000     8.072000000     0.684000000
O    -5.932000000     2.621000000     3.769000000
H    -6.229000000     1.715000000     3.853000000
H    -5.560000000     2.670000000     2.889000000
O    -0.623000000     4.186000000     2.595000000
H    -0.136000000     3.746000000     1.898000000
H     0.035000000     4.381000000     3.262000000
O    -6.739000000     3.049000000    -1.930000000
H    -5.813000000     3.019000000    -1.692000000
H    -7.188000000     3.290000000    -1.119000000
O    -4.297000000     6.120000000    -2.713000000
H    -5.142000000     5.896000000    -3.103000000
H    -4.496000000     6.291000000    -1.792000000
O    -0.111000000     3.658000000    -0.041000000
H    -0.710000000     4.083000000    -0.656000000
H    -0.587000000     2.884000000     0.259000000
O    -8.817000000     1.680000000     1.680000000
H    -8.104000000     2.132000000     1.228000000
H    -9.406000000     1.402000000     0.979000000
