215
-1461.98044
C    -4.809000000    -2.439000000    -1.138000000
H    -4.635000000    -3.305000000    -0.504000000
C    -3.944000000    -2.101000000    -2.194000000
C    -4.278000000    -1.076000000    -3.058000000
H    -3.526000000    -0.726000000    -3.760000000
C    -2.510000000    -2.629000000    -2.264000000
O    -2.443000000    -3.901000000    -1.566000000
H    -1.864000000    -1.985000000    -1.649000000
O    -2.005000000    -2.796000000    -3.573000000
C    -0.678000000    -2.435000000    -3.890000000
C    -0.444000000    -1.228000000    -4.548000000
H    -1.313000000    -0.635000000    -4.822000000
C     0.874000000    -0.796000000    -4.707000000
O     1.071000000     0.545000000    -4.928000000
C     1.940000000    -1.563000000    -4.246000000
C     3.314000000    -1.119000000    -4.324000000
H     4.092000000    -1.859000000    -4.526000000
C     3.633000000    -0.411000000    -3.065000000
C     4.213000000    -1.090000000    -2.023000000
H     4.519000000    -2.134000000    -2.030000000
H     3.400000000    -0.411000000    -5.151000000
C     1.668000000    -2.892000000    -3.716000000
H     2.573000000    -3.481000000    -3.588000000
C     0.383000000    -3.347000000    -3.582000000
C     0.030000000    -4.691000000    -2.920000000
H     0.775000000    -5.472000000    -3.089000000
H    -0.899000000    -5.050000000    -3.367000000
C    -0.171000000    -4.495000000    -1.393000000
C     0.927000000    -4.683000000    -0.536000000
H     1.873000000    -4.942000000    -1.005000000
C    -1.396000000    -4.110000000    -0.782000000
C    -1.548000000    -4.014000000     0.578000000
H    -2.488000000    -3.594000000     0.929000000
C    -0.456000000    -4.300000000     1.424000000
O    -0.563000000    -4.084000000     2.822000000
C    -0.109000000    -2.792000000     3.195000000
C    -1.062000000    -2.122000000     4.110000000
C    -0.620000000    -1.275000000     5.151000000
H     0.443000000    -1.291000000     5.382000000
C    -2.403000000    -1.923000000     3.705000000
H    -2.644000000    -2.475000000     2.800000000
O     1.231000000    -2.921000000     3.780000000
H    -0.070000000    -2.160000000     2.295000000
C     0.743000000    -4.692000000     0.860000000
C     2.011000000    -4.846000000     1.703000000
H     2.605000000    -5.578000000     1.151000000
H     1.699000000    -5.313000000     2.639000000
C     2.764000000    -3.523000000     1.886000000
C     3.722000000    -3.085000000     0.959000000
H     3.999000000    -3.640000000     0.067000000
C     2.421000000    -2.678000000     3.009000000
C     3.052000000    -1.529000000     3.272000000
H     2.715000000    -0.949000000     4.127000000
C     4.093000000    -1.125000000     2.397000000
O     4.502000000     0.170000000     2.518000000
C     3.865000000     1.192000000     1.735000000
C     3.404000000     2.374000000     2.583000000
C     3.334000000     2.356000000     3.972000000
H     3.560000000     1.499000000     4.601000000
C     2.975000000     3.473000000     1.923000000
H     3.061000000     3.487000000     0.839000000
O     4.633000000     1.551000000     0.571000000
H     2.913000000     0.790000000     1.357000000
C     4.423000000    -1.910000000     1.265000000
C     5.298000000    -1.285000000     0.239000000
H     6.063000000    -1.902000000    -0.237000000
H     5.942000000    -0.589000000     0.780000000
C     4.553000000    -0.423000000    -0.797000000
C     4.408000000     0.948000000    -0.646000000
C     3.867000000     1.642000000    -1.680000000
H     3.622000000     2.686000000    -1.502000000
C     3.479000000     0.978000000    -2.844000000
O     2.834000000     1.738000000    -3.775000000
C     1.424000000     1.448000000    -3.920000000
H     1.133000000     0.927000000    -2.996000000
C     0.563000000     2.698000000    -3.992000000
C    -0.797000000     2.696000000    -4.389000000
H    -1.206000000     1.765000000    -4.775000000
C     0.988000000     3.864000000    -3.278000000
H     1.928000000     3.792000000    -2.738000000
C     0.288000000     5.077000000    -3.363000000
O     0.849000000     6.262000000    -2.863000000
C    -0.893000000     5.119000000    -4.038000000
H    -1.495000000     6.023000000    -4.071000000
C    -1.528000000     3.914000000    -4.450000000
O    -2.771000000     3.982000000    -5.158000000
C    -3.460000000     2.848000000    -5.490000000
C    -4.308000000     2.247000000    -4.560000000
H    -4.198000000     2.612000000    -3.542000000
C    -3.340000000     2.341000000    -6.809000000
H    -2.724000000     2.906000000    -7.504000000
C    -4.093000000     1.241000000    -7.145000000
H    -3.903000000     0.805000000    -8.122000000
C    -4.944000000     0.623000000    -6.232000000
H    -5.556000000    -0.229000000    -6.518000000
C    -5.014000000     1.083000000    -4.909000000
O    -5.805000000     0.514000000    -3.971000000
C    -5.469000000    -0.437000000    -2.950000000
C    -6.401000000    -0.800000000    -1.996000000
H    -7.365000000    -0.298000000    -1.959000000
C    -5.995000000    -1.714000000    -1.068000000
O    -6.817000000    -1.828000000    -0.042000000
C    -6.344000000    -2.340000000     1.134000000
C    -5.642000000    -1.437000000     1.903000000
H    -5.442000000    -0.431000000     1.544000000
C    -6.603000000    -3.606000000     1.677000000
H    -7.314000000    -4.240000000     1.154000000
C    -6.133000000    -3.957000000     2.944000000
H    -6.416000000    -4.875000000     3.452000000
C    -5.496000000    -2.979000000     3.717000000
H    -5.349000000    -3.243000000     4.761000000
C    -5.284000000    -1.788000000     3.161000000
O    -4.491000000    -0.875000000     3.801000000
C    -3.249000000    -1.080000000     4.338000000
C    -2.842000000    -0.410000000     5.441000000
H    -3.487000000     0.266000000     5.995000000
C    -1.503000000    -0.408000000     5.773000000
O    -1.045000000     0.509000000     6.735000000
C     0.311000000     0.808000000     7.044000000
C     0.789000000     2.017000000     6.488000000
H     0.153000000     2.591000000     5.819000000
C     1.149000000    -0.034000000     7.811000000
H     0.735000000    -0.921000000     8.283000000
C     2.476000000     0.298000000     7.905000000
H     3.216000000    -0.283000000     8.449000000
C     3.015000000     1.446000000     7.318000000
H     4.084000000     1.630000000     7.393000000
C     2.152000000     2.305000000     6.630000000
O     2.666000000     3.430000000     6.009000000
C     2.793000000     3.464000000     4.649000000
C     2.210000000     4.551000000     3.958000000
H     1.699000000     5.285000000     4.577000000
C     2.335000000     4.555000000     2.544000000
O     1.947000000     5.661000000     1.814000000
C     2.292000000     6.056000000     0.476000000
C     3.599000000     6.332000000     0.208000000
H     4.304000000     6.205000000     1.026000000
C     4.050000000     6.437000000    -1.093000000
H     5.111000000     6.471000000    -1.330000000
C     3.101000000     6.468000000    -2.122000000
H     3.378000000     6.432000000    -3.173000000
C     1.758000000     6.339000000    -1.830000000
C     1.354000000     6.155000000    -0.512000000
H     0.299000000     6.092000000    -0.257000000
C    -1.821000000     0.049000000     0.856000000
H    -2.024000000    -0.039000000     1.920000000
C    -0.777000000    -0.525000000     0.176000000
H    -0.025000000    -1.083000000     0.729000000
C    -0.545000000    -0.219000000    -1.166000000
H     0.358000000    -0.466000000    -1.634000000
C    -1.403000000     0.599000000    -1.871000000
H    -1.336000000     0.734000000    -2.947000000
C    -2.524000000     1.152000000    -1.177000000
H    -3.093000000     1.874000000    -1.757000000
C    -2.748000000     0.910000000     0.127000000
C    -3.841000000     1.611000000     0.775000000
O    -4.738000000     2.156000000     0.130000000
O    -3.813000000     1.684000000     2.019000000
O    -4.248000000     5.307000000     2.954000000
H    -4.285000000     4.806000000     3.769000000
H    -3.418000000     5.782000000     3.002000000
O    -0.898000000     3.783000000     0.885000000
H    -1.803000000     3.941000000     0.617000000
H    -0.962000000     3.524000000     1.804000000
O    -3.587000000     4.491000000     0.430000000
H    -3.955000000     3.610000000     0.366000000
H    -3.880000000     4.811000000     1.283000000
O    -7.269000000     2.012000000    -0.115000000
H    -6.322000000     1.920000000    -0.007000000
H    -7.640000000     1.303000000     0.410000000
O    -5.716000000     2.107000000     3.927000000
H    -6.159000000     2.720000000     3.341000000
H    -5.058000000     1.682000000     3.377000000
O    -8.424000000     3.410000000     1.860000000
H    -7.759000000     2.975000000     1.326000000
H    -9.209000000     2.874000000     1.747000000
O    -7.353000000     6.111000000     1.368000000
H    -7.454000000     5.177000000     1.551000000
H    -7.609000000     6.544000000     2.182000000
O    -9.324000000     3.240000000    -1.853000000
H    -8.530000000     2.890000000    -1.449000000
H    -9.227000000     3.041000000    -2.784000000
O    -6.181000000     0.647000000     6.762000000
H    -5.820000000     1.020000000     7.566000000
H    -6.090000000     1.345000000     6.113000000
O    -1.943000000     6.664000000     3.200000000
H    -2.317000000     7.301000000     2.591000000
H    -0.997000000     6.791000000     3.129000000
O    -1.576000000     2.646000000     3.419000000
H    -1.857000000     2.947000000     4.283000000
H    -2.363000000     2.263000000     3.031000000
O    -3.953000000     6.559000000    -1.177000000
H    -4.865000000     6.836000000    -1.085000000
H    -3.780000000     6.041000000    -0.391000000
O    -4.463000000     4.241000000     5.516000000
H    -4.881000000     3.437000000     5.207000000
H    -3.983000000     3.975000000     6.300000000
O    -7.667000000     0.641000000     2.187000000
H    -6.990000000     0.457000000     2.838000000
H    -8.363000000     0.012000000     2.380000000
O     0.582000000     0.694000000     2.491000000
H    -0.078000000     1.045000000     3.090000000
H     1.017000000     1.469000000     2.134000000
O    -5.544000000     4.214000000    -1.889000000
H    -5.580000000     3.697000000    -1.084000000
H    -5.018000000     4.979000000    -1.659000000
O    -6.695000000     7.165000000    -0.964000000
H    -6.847000000     6.765000000    -0.108000000
H    -7.248000000     6.665000000    -1.564000000
O     1.092000000     2.045000000    -0.187000000
H     0.443000000     1.342000000    -0.180000000
H     0.579000000     2.845000000    -0.299000000
O    -6.491000000     4.611000000    -4.591000000
H    -5.849000000     5.099000000    -5.107000000
H    -5.983000000     4.232000000    -3.873000000
