215
-1444.11575
C    -4.182000000    -3.018000000     1.154000000
H    -3.598000000    -3.841000000     1.557000000
C    -3.879000000    -2.555000000    -0.142000000
C    -4.602000000    -1.466000000    -0.658000000
H    -4.352000000    -0.968000000    -1.592000000
C    -2.644000000    -3.024000000    -0.944000000
O    -2.238000000    -4.348000000    -0.529000000
H    -1.846000000    -2.306000000    -0.704000000
O    -2.968000000    -2.944000000    -2.322000000
C    -1.900000000    -2.634000000    -3.196000000
C    -2.091000000    -1.493000000    -3.977000000
H    -3.064000000    -1.014000000    -3.907000000
C    -1.032000000    -1.031000000    -4.757000000
O    -1.199000000     0.331000000    -5.157000000
C     0.200000000    -1.659000000    -4.799000000
C     1.409000000    -1.032000000    -5.462000000
H     2.057000000    -1.887000000    -5.666000000
C     2.232000000    -0.112000000    -4.445000000
C     3.191000000    -0.676000000    -3.609000000
H     3.517000000    -1.706000000    -3.731000000
H     1.299000000    -0.539000000    -6.430000000
C     0.403000000    -2.847000000    -4.084000000
H     1.345000000    -3.387000000    -4.026000000
C    -0.725000000    -3.340000000    -3.382000000
C    -0.496000000    -4.683000000    -2.767000000
H     0.232000000    -5.177000000    -3.413000000
H    -1.376000000    -5.326000000    -2.831000000
C     0.009000000    -4.626000000    -1.366000000
C     1.393000000    -4.665000000    -1.050000000
H     2.142000000    -4.780000000    -1.830000000
C    -0.914000000    -4.641000000    -0.310000000
C    -0.469000000    -4.569000000     0.981000000
H    -1.200000000    -4.414000000     1.771000000
C     0.843000000    -4.535000000     1.358000000
O     1.135000000    -4.175000000     2.650000000
C     1.654000000    -2.867000000     2.904000000
C     1.073000000    -2.222000000     4.181000000
C     1.547000000    -1.031000000     4.713000000
H     2.518000000    -0.648000000     4.409000000
C    -0.170000000    -2.737000000     4.658000000
H    -0.418000000    -3.756000000     4.372000000
O     3.060000000    -2.905000000     2.882000000
H     1.335000000    -2.258000000     2.046000000
C     1.814000000    -4.536000000     0.308000000
C     3.375000000    -4.496000000     0.543000000
H     3.904000000    -4.990000000    -0.275000000
H     3.588000000    -5.091000000     1.433000000
C     3.784000000    -3.074000000     0.615000000
C     4.330000000    -2.459000000    -0.529000000
H     4.656000000    -3.037000000    -1.390000000
C     3.622000000    -2.322000000     1.748000000
C     3.832000000    -0.954000000     1.697000000
H     3.585000000    -0.384000000     2.589000000
C     4.247000000    -0.347000000     0.567000000
O     4.379000000     1.037000000     0.605000000
C     3.457000000     1.859000000    -0.102000000
C     3.406000000     3.198000000     0.698000000
C     3.601000000     3.259000000     2.098000000
H     3.959000000     2.430000000     2.703000000
C     3.041000000     4.341000000     0.016000000
H     2.940000000     4.308000000    -1.066000000
O     3.928000000     2.161000000    -1.399000000
H     2.456000000     1.404000000    -0.139000000
C     4.599000000    -1.053000000    -0.578000000
C     5.002000000    -0.370000000    -1.881000000
H     5.528000000    -1.016000000    -2.587000000
H     5.766000000     0.386000000    -1.686000000
C     3.845000000     0.109000000    -2.644000000
C     3.438000000     1.405000000    -2.458000000
C     2.341000000     1.886000000    -3.123000000
H     1.955000000     2.867000000    -2.857000000
C     1.795000000     1.198000000    -4.182000000
O     0.689000000     1.660000000    -4.754000000
C    -0.557000000     1.233000000    -4.189000000
H    -0.325000000     0.692000000    -3.260000000
C    -1.490000000     2.465000000    -3.843000000
C    -2.866000000     2.281000000    -4.005000000
H    -3.433000000     1.407000000    -4.316000000
C    -0.912000000     3.731000000    -3.547000000
H     0.170000000     3.832000000    -3.554000000
C    -1.750000000     4.794000000    -3.183000000
O    -1.172000000     6.042000000    -2.930000000
C    -3.128000000     4.569000000    -3.115000000
H    -3.806000000     5.366000000    -2.821000000
C    -3.651000000     3.358000000    -3.557000000
O    -5.007000000     3.429000000    -3.741000000
C    -5.753000000     2.373000000    -3.252000000
C    -5.667000000     1.854000000    -1.963000000
H    -5.110000000     2.473000000    -1.265000000
C    -6.417000000     1.630000000    -4.178000000
H    -6.453000000     1.975000000    -5.208000000
C    -7.135000000     0.596000000    -3.862000000
H    -7.745000000     0.103000000    -4.615000000
C    -7.172000000     0.100000000    -2.568000000
H    -7.782000000    -0.767000000    -2.331000000
C    -6.398000000     0.718000000    -1.608000000
O    -6.365000000     0.201000000    -0.348000000
C    -5.616000000    -0.911000000     0.102000000
C    -5.926000000    -1.404000000     1.360000000
H    -6.682000000    -0.883000000     1.942000000
C    -5.204000000    -2.432000000     1.924000000
O    -5.460000000    -2.867000000     3.229000000
C    -4.532000000    -3.626000000     3.981000000
C    -3.557000000    -2.901000000     4.707000000
H    -3.444000000    -1.827000000     4.580000000
C    -4.474000000    -5.019000000     3.931000000
H    -5.178000000    -5.539000000     3.286000000
C    -3.503000000    -5.683000000     4.685000000
H    -3.546000000    -6.769000000     4.703000000
C    -2.708000000    -5.013000000     5.544000000
H    -1.961000000    -5.572000000     6.101000000
C    -2.705000000    -3.600000000     5.542000000
O    -1.772000000    -2.959000000     6.388000000
C    -0.744000000    -2.241000000     5.821000000
C    -0.268000000    -1.024000000     6.322000000
H    -0.680000000    -0.618000000     7.242000000
C     0.851000000    -0.419000000     5.762000000
O     1.328000000     0.817000000     6.247000000
C     2.540000000     1.541000000     6.007000000
C     2.463000000     2.611000000     5.115000000
H     1.580000000     2.883000000     4.543000000
C     3.697000000     1.256000000     6.770000000
H     3.835000000     0.400000000     7.426000000
C     4.780000000     2.032000000     6.678000000
H     5.743000000     1.736000000     7.087000000
C     4.693000000     3.182000000     5.837000000
H     5.587000000     3.782000000     5.687000000
C     3.578000000     3.445000000     5.053000000
O     3.594000000     4.534000000     4.235000000
C     3.284000000     4.427000000     2.860000000
C     2.920000000     5.533000000     2.153000000
H     2.756000000     6.439000000     2.732000000
C     2.834000000     5.498000000     0.753000000
O     2.230000000     6.599000000     0.197000000
C     1.831000000     6.621000000    -1.134000000
C     2.665000000     7.207000000    -2.097000000
H     3.645000000     7.602000000    -1.845000000
C     2.250000000     7.264000000    -3.466000000
H     2.872000000     7.785000000    -4.190000000
C     1.010000000     6.757000000    -3.713000000
H     0.577000000     6.896000000    -4.701000000
C     0.145000000     6.310000000    -2.701000000
C     0.574000000     6.174000000    -1.353000000
H    -0.056000000     5.669000000    -0.625000000
C    -3.008000000     0.502000000     2.035000000
H    -3.413000000     0.231000000     3.006000000
C    -1.975000000    -0.225000000     1.444000000
H    -1.691000000    -1.133000000     1.968000000
C    -1.467000000     0.219000000     0.217000000
H    -0.651000000    -0.320000000    -0.278000000
C    -1.950000000     1.404000000    -0.340000000
H    -1.518000000     1.663000000    -1.303000000
C    -2.952000000     2.181000000     0.299000000
H    -3.281000000     3.163000000    -0.031000000
C    -3.478000000     1.696000000     1.496000000
C    -4.594000000     2.509000000     2.153000000
O    -4.944000000     3.554000000     1.629000000
O    -4.841000000     2.409000000     3.299000000
O    -9.505000000     3.652000000     3.390000000
H    -8.652000000     3.372000000     3.056000000
H    -9.721000000     4.428000000     2.874000000
O    -7.052000000     6.581000000     1.841000000
H    -6.713000000     6.012000000     2.532000000
H    -8.003000000     6.542000000     1.944000000
O    -8.172000000     0.961000000     3.605000000
H    -8.773000000     0.819000000     2.874000000
H    -7.346000000     1.212000000     3.190000000
O    -2.839000000     5.667000000     4.876000000
H    -2.011000000     6.029000000     5.193000000
H    -2.908000000     4.814000000     5.305000000
O    -4.699000000     1.665000000     5.759000000
H    -4.707000000     1.940000000     4.842000000
H    -4.156000000     2.318000000     6.200000000
O    -0.511000000     6.461000000     2.432000000
H    -0.647000000     7.406000000     2.507000000
H    -1.360000000     6.118000000     2.153000000
O    -3.267000000     3.933000000     6.893000000
H    -3.479000000     4.113000000     7.809000000
H    -2.312000000     3.985000000     6.854000000
O    -7.513000000     2.833000000     1.119000000
H    -7.687000000     3.678000000     0.706000000
H    -6.675000000     2.953000000     1.566000000
O    -5.982000000     4.836000000     3.661000000
H    -5.351000000     4.382000000     3.103000000
H    -6.161000000     4.220000000     4.372000000
O    -7.011000000     2.822000000     6.743000000
H    -6.158000000     2.388000000     6.721000000
H    -6.806000000     3.756000000     6.697000000
O    -3.144000000     5.772000000     2.165000000
H    -3.207000000     5.648000000     3.112000000
H    -3.536000000     4.982000000     1.793000000
O    -7.511000000     5.251000000    -2.415000000
H    -7.940000000     4.437000000    -2.676000000
H    -6.977000000     5.008000000    -1.658000000
O     0.159000000     2.667000000     1.699000000
H    -0.266000000     3.153000000     2.405000000
H    -0.482000000     2.003000000     1.446000000
O    -5.665000000     7.554000000     4.640000000
H    -5.115000000     6.850000000     4.296000000
H    -5.716000000     8.188000000     3.925000000
O    -5.920000000     5.182000000    -0.211000000
H    -6.187000000     5.714000000     0.538000000
H    -5.473000000     4.429000000     0.176000000
O     0.087000000     4.791000000     4.283000000
H    -0.089000000     5.366000000     3.538000000
H     0.953000000     5.057000000     4.591000000
O    -6.788000000    -0.449000000     5.515000000
H    -6.051000000     0.161000000     5.483000000
H    -7.522000000     0.043000000     5.147000000
O    -3.576000000     7.021000000    -0.948000000
H    -2.793000000     6.471000000    -0.927000000
H    -4.305000000     6.402000000    -0.898000000
O    -9.192000000     0.587000000     1.106000000
H    -8.442000000     1.176000000     1.185000000
H    -9.410000000     0.601000000     0.174000000
