215
-1479.23006
C    -3.593000000    -3.205000000     0.287000000
H    -2.779000000    -3.807000000     0.683000000
C    -3.487000000    -2.782000000    -1.047000000
C    -4.577000000    -2.054000000    -1.585000000
H    -4.417000000    -1.587000000    -2.554000000
C    -2.245000000    -3.077000000    -1.855000000
O    -1.622000000    -4.387000000    -1.564000000
H    -1.495000000    -2.324000000    -1.574000000
O    -2.439000000    -3.007000000    -3.319000000
C    -1.444000000    -2.262000000    -4.002000000
C    -1.750000000    -0.972000000    -4.320000000
H    -2.793000000    -0.664000000    -4.309000000
C    -0.784000000    -0.050000000    -4.661000000
O    -1.219000000     1.291000000    -4.697000000
C     0.563000000    -0.446000000    -4.877000000
C     1.711000000     0.465000000    -5.324000000
H     2.465000000    -0.118000000    -5.856000000
C     2.297000000     1.170000000    -4.099000000
C     3.429000000     0.641000000    -3.483000000
H     3.891000000    -0.267000000    -3.860000000
H     1.191000000     1.193000000    -5.950000000
C     0.872000000    -1.743000000    -4.561000000
H     1.879000000    -2.069000000    -4.809000000
C    -0.084000000    -2.675000000    -4.089000000
C     0.339000000    -4.049000000    -3.740000000
H     1.174000000    -4.345000000    -4.379000000
H    -0.467000000    -4.729000000    -4.025000000
C     0.712000000    -4.146000000    -2.281000000
C     2.087000000    -4.110000000    -1.935000000
H     2.894000000    -3.946000000    -2.645000000
C    -0.267000000    -4.345000000    -1.279000000
C     0.091000000    -4.316000000     0.077000000
H    -0.593000000    -4.462000000     0.910000000
C     1.436000000    -4.339000000     0.412000000
O     1.768000000    -4.308000000     1.750000000
C     1.973000000    -3.027000000     2.373000000
C     1.207000000    -3.063000000     3.699000000
C     1.598000000    -2.079000000     4.638000000
H     2.532000000    -1.541000000     4.496000000
C     0.191000000    -3.994000000     4.018000000
H    -0.183000000    -4.684000000     3.266000000
O     3.322000000    -2.848000000     2.493000000
H     1.559000000    -2.203000000     1.774000000
C     2.422000000    -4.216000000    -0.596000000
C     3.882000000    -4.112000000    -0.112000000
H     4.563000000    -4.487000000    -0.879000000
H     3.952000000    -4.803000000     0.731000000
C     4.254000000    -2.679000000     0.217000000
C     4.764000000    -1.815000000    -0.696000000
H     5.117000000    -2.232000000    -1.635000000
C     3.971000000    -2.145000000     1.490000000
C     4.175000000    -0.763000000     1.785000000
H     3.681000000    -0.339000000     2.654000000
C     4.653000000     0.086000000     0.768000000
O     4.643000000     1.450000000     0.924000000
C     3.490000000     2.240000000     0.535000000
C     2.907000000     3.183000000     1.598000000
C     2.737000000     2.823000000     2.941000000
H     3.017000000     1.816000000     3.239000000
C     2.431000000     4.462000000     1.292000000
H     2.598000000     4.863000000     0.296000000
O     3.691000000     2.893000000    -0.662000000
H     2.766000000     1.428000000     0.374000000
C     4.927000000    -0.439000000    -0.498000000
C     5.269000000     0.528000000    -1.703000000
H     5.794000000    -0.023000000    -2.485000000
H     5.784000000     1.396000000    -1.285000000
C     3.951000000     1.137000000    -2.304000000
C     3.341000000     2.275000000    -1.814000000
C     2.188000000     2.854000000    -2.347000000
H     1.795000000     3.730000000    -1.836000000
C     1.646000000     2.227000000    -3.455000000
O     0.501000000     2.785000000    -3.928000000
C    -0.727000000     2.092000000    -3.605000000
H    -0.436000000     1.439000000    -2.769000000
C    -1.762000000     3.144000000    -3.091000000
C    -3.124000000     2.811000000    -3.165000000
H    -3.435000000     1.937000000    -3.731000000
C    -1.312000000     4.357000000    -2.528000000
H    -0.260000000     4.633000000    -2.536000000
C    -2.278000000     5.263000000    -2.016000000
O    -1.826000000     6.463000000    -1.429000000
C    -3.658000000     4.956000000    -2.075000000
H    -4.414000000     5.658000000    -1.734000000
C    -4.070000000     3.749000000    -2.715000000
O    -5.455000000     3.527000000    -2.746000000
C    -5.963000000     2.249000000    -3.041000000
C    -6.094000000     1.261000000    -2.035000000
H    -5.855000000     1.595000000    -1.028000000
C    -6.420000000     1.974000000    -4.350000000
H    -6.411000000     2.707000000    -5.153000000
C    -6.975000000     0.703000000    -4.552000000
H    -7.374000000     0.521000000    -5.547000000
C    -7.057000000    -0.278000000    -3.618000000
H    -7.400000000    -1.252000000    -3.955000000
C    -6.579000000    -0.029000000    -2.363000000
O    -6.699000000    -0.928000000    -1.348000000
C    -5.647000000    -1.639000000    -0.844000000
C    -5.703000000    -2.002000000     0.489000000
H    -6.536000000    -1.676000000     1.106000000
C    -4.697000000    -2.793000000     1.062000000
O    -4.978000000    -3.298000000     2.349000000
C    -4.129000000    -4.316000000     2.928000000
C    -3.327000000    -3.982000000     3.973000000
H    -3.466000000    -3.018000000     4.454000000
C    -4.058000000    -5.513000000     2.328000000
H    -4.710000000    -5.679000000     1.474000000
C    -3.234000000    -6.542000000     2.830000000
H    -3.203000000    -7.559000000     2.446000000
C    -2.337000000    -6.307000000     3.919000000
H    -1.648000000    -7.024000000     4.360000000
C    -2.496000000    -4.972000000     4.509000000
O    -1.650000000    -4.590000000     5.549000000
C    -0.446000000    -3.857000000     5.244000000
C    -0.049000000    -2.938000000     6.160000000
H    -0.607000000    -2.866000000     7.090000000
C     0.914000000    -1.975000000     5.862000000
O     1.329000000    -1.073000000     6.812000000
C     2.178000000    -0.012000000     6.621000000
C     1.719000000     1.186000000     6.037000000
H     0.665000000     1.262000000     5.782000000
C     3.507000000    -0.220000000     6.833000000
H     3.834000000    -1.206000000     7.153000000
C     4.443000000     0.776000000     6.606000000
H     5.484000000     0.600000000     6.866000000
C     3.988000000     1.999000000     6.038000000
H     4.617000000     2.876000000     5.908000000
C     2.621000000     2.168000000     5.738000000
O     2.268000000     3.413000000     5.290000000
C     2.261000000     3.731000000     3.928000000
C     1.871000000     5.031000000     3.515000000
H     1.549000000     5.803000000     4.210000000
C     1.937000000     5.363000000     2.210000000
O     1.651000000     6.602000000     1.775000000
C     1.191000000     6.882000000     0.491000000
C     1.846000000     7.835000000    -0.326000000
H     2.817000000     8.167000000     0.033000000
C     1.340000000     8.288000000    -1.539000000
H     1.959000000     8.979000000    -2.105000000
C     0.101000000     7.739000000    -1.917000000
H    -0.367000000     7.970000000    -2.870000000
C    -0.562000000     6.846000000    -1.053000000
C    -0.029000000     6.463000000     0.161000000
H    -0.456000000     5.734000000     0.846000000
C    -2.454000000     0.299000000     1.064000000
H    -3.318000000    -0.240000000     1.444000000
C    -1.299000000    -0.395000000     0.662000000
H    -1.342000000    -1.458000000     0.887000000
C    -0.263000000     0.225000000     0.032000000
H     0.526000000    -0.353000000    -0.366000000
C    -0.294000000     1.661000000    -0.091000000
H     0.468000000     2.114000000    -0.720000000
C    -1.439000000     2.406000000     0.304000000
H    -1.348000000     3.481000000     0.176000000
C    -2.573000000     1.724000000     0.812000000
C    -3.719000000     2.530000000     1.324000000
O    -3.583000000     3.710000000     1.549000000
O    -4.662000000     1.902000000     1.734000000
O    -6.605000000     3.736000000     6.877000000
H    -5.832000000     4.227000000     7.154000000
H    -6.424000000     3.497000000     5.968000000
O    -8.545000000     1.869000000     4.539000000
H    -9.193000000     2.574000000     4.558000000
H    -8.897000000     1.237000000     3.913000000
O    -4.587000000     8.489000000     3.379000000
H    -4.053000000     7.853000000     2.903000000
H    -5.360000000     7.996000000     3.652000000
O    -3.964000000     5.438000000     4.430000000
H    -4.139000000     4.497000000     4.450000000
H    -3.010000000     5.502000000     4.380000000
O    -5.588000000     0.062000000     3.650000000
H    -6.145000000     0.740000000     4.033000000
H    -5.208000000     0.475000000     2.874000000
O    -4.227000000    -0.469000000     6.145000000
H    -4.661000000    -0.350000000     5.300000000
H    -4.928000000    -0.736000000     6.739000000
O    -2.977000000     2.693000000     5.145000000
H    -3.003000000     2.342000000     6.035000000
H    -2.353000000     2.132000000     4.684000000
O    -1.632000000    -0.140000000     5.581000000
H    -2.509000000    -0.456000000     5.797000000
H    -1.222000000     0.028000000     6.429000000
O    -7.302000000     1.825000000     1.362000000
H    -7.622000000     2.406000000     2.051000000
H    -6.349000000     1.874000000     1.430000000
O    -5.504000000     2.846000000     4.066000000
H    -4.663000000     2.788000000     4.519000000
H    -5.322000000     2.530000000     3.181000000
O    -1.416000000     4.636000000     3.009000000
H    -1.026000000     3.906000000     3.491000000
H    -1.913000000     4.221000000     2.305000000
O    -7.364000000     4.686000000     3.250000000
H    -8.178000000     4.498000000     3.717000000
H    -6.751000000     4.018000000     3.558000000
O    -7.883000000     5.796000000     0.612000000
H    -7.248000000     5.492000000    -0.036000000
H    -7.660000000     5.317000000     1.410000000
O    -0.878000000     1.558000000     3.724000000
H    -0.783000000     1.262000000     2.819000000
H    -0.933000000     0.751000000     4.235000000
O    -0.984000000     6.909000000     4.499000000
H    -0.550000000     6.350000000     5.144000000
H    -1.220000000     6.315000000     3.787000000
O    -4.394000000     6.113000000     1.596000000
H    -5.225000000     5.847000000     1.991000000
H    -3.853000000     5.324000000     1.623000000
O    -6.636000000    -2.000000000     5.166000000
H    -7.467000000    -1.528000000     5.203000000
H    -6.145000000    -1.567000000     4.467000000
O    -3.140000000     8.519000000     0.514000000
H    -3.501000000     7.633000000     0.497000000
H    -2.532000000     8.515000000     1.254000000
O    -8.877000000    -0.025000000     2.346000000
H    -7.954000000     0.228000000     2.354000000
H    -9.189000000     0.233000000     1.478000000
