215
-1435.43906
C    -3.412000000    -3.721000000     0.833000000
H    -2.612000000    -4.312000000     1.272000000
C    -3.404000000    -3.289000000    -0.479000000
C    -4.512000000    -2.620000000    -0.940000000
H    -4.459000000    -2.054000000    -1.866000000
C    -2.155000000    -3.426000000    -1.360000000
O    -1.407000000    -4.597000000    -0.904000000
H    -1.531000000    -2.527000000    -1.246000000
O    -2.443000000    -3.618000000    -2.773000000
C    -1.630000000    -2.870000000    -3.592000000
C    -2.001000000    -1.558000000    -3.943000000
H    -2.905000000    -1.088000000    -3.564000000
C    -1.097000000    -0.628000000    -4.506000000
O    -1.392000000     0.713000000    -4.639000000
C     0.193000000    -1.020000000    -4.810000000
C     1.198000000     0.015000000    -5.255000000
H     1.960000000    -0.494000000    -5.850000000
C     1.883000000     0.815000000    -4.130000000
C     3.172000000     0.455000000    -3.744000000
H     3.625000000    -0.454000000    -4.131000000
H     0.609000000     0.629000000    -5.940000000
C     0.572000000    -2.324000000    -4.446000000
H     1.624000000    -2.550000000    -4.599000000
C    -0.297000000    -3.191000000    -3.814000000
C     0.270000000    -4.468000000    -3.279000000
H     1.066000000    -4.795000000    -3.952000000
H    -0.504000000    -5.219000000    -3.454000000
C     0.784000000    -4.374000000    -1.870000000
C     2.160000000    -4.153000000    -1.622000000
H     2.844000000    -4.200000000    -2.465000000
C    -0.059000000    -4.460000000    -0.761000000
C     0.398000000    -4.359000000     0.533000000
H    -0.241000000    -4.281000000     1.408000000
C     1.689000000    -3.976000000     0.761000000
O     2.010000000    -3.744000000     2.042000000
C     2.316000000    -2.376000000     2.460000000
C     1.670000000    -2.136000000     3.764000000
C     1.957000000    -0.871000000     4.320000000
H     2.664000000    -0.172000000     3.880000000
C     0.652000000    -2.974000000     4.341000000
H     0.454000000    -3.917000000     3.838000000
O     3.750000000    -1.986000000     2.439000000
H     1.800000000    -1.708000000     1.754000000
C     2.637000000    -3.930000000    -0.272000000
C     4.130000000    -3.519000000    -0.051000000
H     4.695000000    -3.915000000    -0.897000000
H     4.540000000    -3.910000000     0.883000000
C     4.373000000    -2.046000000     0.074000000
C     4.779000000    -1.309000000    -1.065000000
H     5.001000000    -1.704000000    -2.053000000
C     4.255000000    -1.430000000     1.302000000
C     4.583000000    -0.067000000     1.411000000
H     4.479000000     0.441000000     2.366000000
C     4.886000000     0.680000000     0.302000000
O     4.964000000     2.003000000     0.383000000
C     3.727000000     2.645000000    -0.080000000
C     3.187000000     3.698000000     0.820000000
C     3.677000000     3.771000000     2.133000000
H     4.500000000     3.110000000     2.391000000
C     2.116000000     4.585000000     0.482000000
H     1.649000000     4.436000000    -0.489000000
O     3.733000000     3.240000000    -1.356000000
H     2.965000000     1.854000000    -0.133000000
C     4.943000000     0.081000000    -0.969000000
C     5.164000000     0.879000000    -2.230000000
H     5.845000000     0.429000000    -2.956000000
H     5.722000000     1.784000000    -1.979000000
C     3.798000000     1.302000000    -2.839000000
C     3.224000000     2.450000000    -2.399000000
C     1.985000000     2.817000000    -2.913000000
H     1.437000000     3.675000000    -2.530000000
C     1.261000000     1.944000000    -3.673000000
O     0.017000000     2.390000000    -4.004000000
C    -1.118000000     1.611000000    -3.554000000
H    -0.929000000     0.909000000    -2.729000000
C    -2.278000000     2.439000000    -3.113000000
C    -3.581000000     1.977000000    -3.252000000
H    -3.727000000     0.944000000    -3.558000000
C    -2.058000000     3.750000000    -2.762000000
H    -1.120000000     4.298000000    -2.723000000
C    -3.156000000     4.585000000    -2.414000000
O    -2.960000000     5.877000000    -2.002000000
C    -4.437000000     4.040000000    -2.442000000
H    -5.376000000     4.504000000    -2.153000000
C    -4.676000000     2.752000000    -2.929000000
O    -6.002000000     2.320000000    -3.101000000
C    -6.364000000     1.024000000    -2.986000000
C    -6.220000000     0.408000000    -1.768000000
H    -5.583000000     0.837000000    -0.998000000
C    -7.093000000     0.464000000    -4.006000000
H    -7.318000000     1.009000000    -4.919000000
C    -7.734000000    -0.800000000    -3.775000000
H    -8.246000000    -1.324000000    -4.578000000
C    -7.526000000    -1.446000000    -2.564000000
H    -8.024000000    -2.403000000    -2.433000000
C    -6.783000000    -0.849000000    -1.635000000
O    -6.708000000    -1.493000000    -0.435000000
C    -5.668000000    -2.371000000    -0.153000000
C    -5.662000000    -2.914000000     1.131000000
H    -6.529000000    -2.735000000     1.762000000
C    -4.572000000    -3.551000000     1.618000000
O    -4.631000000    -4.209000000     2.780000000
C    -3.602000000    -4.639000000     3.611000000
C    -2.799000000    -3.721000000     4.348000000
H    -3.105000000    -2.678000000     4.320000000
C    -3.272000000    -5.942000000     3.578000000
H    -3.796000000    -6.684000000     2.981000000
C    -2.088000000    -6.374000000     4.319000000
H    -1.743000000    -7.405000000     4.314000000
C    -1.382000000    -5.501000000     5.167000000
H    -0.538000000    -5.874000000     5.742000000
C    -1.787000000    -4.172000000     5.212000000
O    -0.995000000    -3.314000000     5.967000000
C    -0.038000000    -2.524000000     5.471000000
C     0.359000000    -1.330000000     6.087000000
H    -0.160000000    -1.046000000     6.999000000
C     1.390000000    -0.498000000     5.556000000
O     1.917000000     0.503000000     6.361000000
C     3.012000000     1.140000000     5.872000000
C     2.730000000     2.427000000     5.321000000
H     1.682000000     2.673000000     5.174000000
C     4.346000000     0.823000000     6.120000000
H     4.627000000    -0.128000000     6.564000000
C     5.361000000     1.699000000     5.785000000
H     6.373000000     1.404000000     6.051000000
C     5.102000000     2.923000000     5.293000000
H     5.875000000     3.654000000     5.072000000
C     3.786000000     3.297000000     4.940000000
O     3.611000000     4.534000000     4.328000000
C     3.150000000     4.584000000     3.087000000
C     2.078000000     5.435000000     2.773000000
H     1.589000000     6.009000000     3.556000000
C     1.564000000     5.392000000     1.506000000
O     0.391000000     6.053000000     1.301000000
C    -0.100000000     6.521000000     0.089000000
C     0.624000000     7.428000000    -0.707000000
H     1.635000000     7.652000000    -0.376000000
C     0.097000000     7.910000000    -1.878000000
H     0.539000000     8.725000000    -2.445000000
C    -1.203000000     7.444000000    -2.272000000
H    -1.610000000     7.654000000    -3.258000000
C    -1.869000000     6.498000000    -1.496000000
C    -1.346000000     6.038000000    -0.341000000
H    -1.791000000     5.202000000     0.193000000
C    -2.020000000    -0.485000000     0.879000000
H    -2.468000000    -1.307000000     1.431000000
C    -0.837000000    -0.624000000     0.275000000
H    -0.192000000    -1.480000000     0.452000000
C    -0.215000000     0.497000000    -0.376000000
H     0.767000000     0.243000000    -0.712000000
C    -0.894000000     1.680000000    -0.557000000
H    -0.450000000     2.524000000    -1.079000000
C    -2.150000000     1.777000000    -0.015000000
H    -2.696000000     2.706000000    -0.154000000
C    -2.665000000     0.746000000     0.779000000
C    -3.851000000     1.095000000     1.670000000
O    -4.104000000     2.239000000     1.835000000
O    -4.627000000     0.306000000     2.136000000
O   -10.124000000     0.628000000     3.314000000
H    -9.299000000     0.386000000     2.893000000
H   -10.732000000     0.765000000     2.588000000
O    -7.494000000     0.617000000     1.689000000
H    -6.723000000     0.467000000     2.236000000
H    -7.396000000     0.003000000     0.962000000
O    -0.903000000     2.446000000     7.187000000
H    -0.964000000     1.695000000     6.596000000
H    -0.776000000     3.197000000     6.607000000
O    -7.233000000    -3.300000000     4.237000000
H    -6.424000000    -3.734000000     3.967000000
H    -7.010000000    -2.370000000     4.259000000
O    -1.129000000     5.122000000     3.751000000
H    -2.037000000     5.220000000     3.463000000
H    -0.610000000     5.487000000     3.035000000
O    -5.762000000    -0.604000000     4.365000000
H    -4.997000000    -0.715000000     4.929000000
H    -5.410000000    -0.232000000     3.556000000
O    -6.614000000     2.874000000     0.623000000
H    -7.083000000     2.163000000     1.060000000
H    -5.707000000     2.776000000     0.912000000
O    -8.295000000    -0.144000000     5.704000000
H    -8.691000000     0.518000000     5.137000000
H    -7.386000000    -0.201000000     5.408000000
O    -4.012000000     2.480000000     4.598000000
H    -4.038000000     2.395000000     3.645000000
H    -4.904000000     2.278000000     4.881000000
O    -1.656000000     0.923000000     4.875000000
H    -2.453000000     1.443000000     4.769000000
H    -1.155000000     1.087000000     4.077000000
O    -6.451000000     6.895000000     4.475000000
H    -6.198000000     6.579000000     5.342000000
H    -6.246000000     6.168000000     3.886000000
O    -3.739000000    -0.413000000     6.180000000
H    -2.872000000    -0.224000000     5.821000000
H    -3.785000000     0.107000000     6.982000000
O    -3.649000000     5.126000000     2.894000000
H    -4.594000000     5.242000000     2.793000000
H    -3.452000000     4.327000000     2.405000000
O    -6.327000000     5.175000000     2.165000000
H    -6.591000000     4.789000000     1.330000000
H    -6.636000000     4.553000000     2.824000000
O    -8.038000000     4.245000000    -1.762000000
H    -7.867000000     3.720000000    -0.980000000
H    -8.650000000     3.717000000    -2.276000000
O    -3.599000000     3.899000000     6.795000000
H    -3.517000000     3.217000000     7.461000000
H    -3.960000000     3.446000000     6.032000000
O    -0.314000000     1.588000000     2.458000000
H     0.382000000     2.189000000     2.193000000
H    -0.448000000     1.025000000     1.696000000
O    -4.983000000     7.087000000    -0.010000000
H    -4.753000000     6.381000000     0.592000000
H    -4.483000000     6.898000000    -0.804000000
O    -6.823000000     3.728000000     4.407000000
H    -6.781000000     4.199000000     5.239000000
H    -7.645000000     3.239000000     4.450000000
