215
-1440.80462
C    -2.563000000    -4.532000000     0.213000000
H    -1.607000000    -4.844000000     0.627000000
C    -2.658000000    -3.875000000    -0.987000000
C    -3.920000000    -3.381000000    -1.365000000
H    -4.017000000    -2.824000000    -2.293000000
C    -1.443000000    -3.581000000    -1.819000000
O    -0.482000000    -4.646000000    -1.707000000
H    -1.090000000    -2.614000000    -1.432000000
O    -1.809000000    -3.480000000    -3.250000000
C    -1.108000000    -2.459000000    -3.873000000
C    -1.809000000    -1.220000000    -3.881000000
H    -2.867000000    -1.195000000    -3.636000000
C    -1.160000000    -0.090000000    -4.398000000
O    -1.896000000     1.016000000    -4.472000000
C     0.231000000    -0.226000000    -4.763000000
C     0.978000000     0.979000000    -5.270000000
H     1.675000000     0.600000000    -6.020000000
C     1.495000000     1.906000000    -4.253000000
C     2.739000000     1.699000000    -3.726000000
H     3.258000000     0.770000000    -3.948000000
H     0.223000000     1.618000000    -5.733000000
C     0.872000000    -1.438000000    -4.620000000
H     1.931000000    -1.304000000    -4.827000000
C     0.228000000    -2.580000000    -4.272000000
C     1.031000000    -3.849000000    -4.045000000
H     1.850000000    -3.792000000    -4.766000000
H     0.481000000    -4.761000000    -4.286000000
C     1.576000000    -3.888000000    -2.665000000
C     2.817000000    -3.335000000    -2.406000000
H     3.328000000    -3.010000000    -3.309000000
C     0.836000000    -4.356000000    -1.537000000
C     1.361000000    -4.281000000    -0.234000000
H     0.738000000    -4.612000000     0.593000000
C     2.623000000    -3.781000000    -0.050000000
O     3.007000000    -3.712000000     1.252000000
C     2.858000000    -2.417000000     1.873000000
C     2.361000000    -2.537000000     3.293000000
C     2.805000000    -1.643000000     4.241000000
H     3.364000000    -0.770000000     3.913000000
C     1.419000000    -3.476000000     3.622000000
H     1.137000000    -4.242000000     2.905000000
O     4.145000000    -1.749000000     1.878000000
H     2.036000000    -1.889000000     1.368000000
C     3.395000000    -3.252000000    -1.137000000
C     4.725000000    -2.563000000    -0.847000000
H     5.305000000    -2.429000000    -1.763000000
H     5.386000000    -3.021000000    -0.108000000
C     4.593000000    -1.175000000    -0.394000000
C     4.789000000    -0.180000000    -1.383000000
H     5.013000000    -0.471000000    -2.406000000
C     4.199000000    -0.801000000     0.898000000
C     4.049000000     0.512000000     1.202000000
H     3.857000000     0.740000000     2.248000000
C     4.248000000     1.505000000     0.272000000
O     3.950000000     2.750000000     0.665000000
C     2.624000000     3.286000000     0.431000000
C     2.030000000     4.013000000     1.635000000
C     2.362000000     3.621000000     2.974000000
H     3.119000000     2.854000000     3.114000000
C     1.008000000     4.922000000     1.455000000
H     0.614000000     5.162000000     0.470000000
O     2.507000000     4.045000000    -0.782000000
H     1.994000000     2.391000000     0.320000000
C     4.519000000     1.190000000    -1.053000000
C     4.564000000     2.238000000    -2.127000000
H     5.130000000     1.862000000    -2.981000000
H     5.061000000     3.127000000    -1.733000000
C     3.149000000     2.455000000    -2.603000000
C     2.285000000     3.479000000    -2.050000000
C     1.042000000     3.635000000    -2.605000000
H     0.461000000     4.439000000    -2.160000000
C     0.610000000     2.868000000    -3.692000000
O    -0.723000000     2.995000000    -4.052000000
C    -1.623000000     2.029000000    -3.506000000
H    -1.087000000     1.573000000    -2.661000000
C    -2.826000000     2.705000000    -2.830000000
C    -3.843000000     1.919000000    -2.327000000
H    -3.790000000     0.833000000    -2.339000000
C    -2.820000000     4.094000000    -2.591000000
H    -1.928000000     4.680000000    -2.800000000
C    -3.966000000     4.687000000    -1.978000000
O    -3.938000000     6.014000000    -1.623000000
C    -5.044000000     3.867000000    -1.618000000
H    -5.834000000     4.438000000    -1.136000000
C    -5.056000000     2.532000000    -1.874000000
O    -6.143000000     1.740000000    -1.379000000
C    -6.283000000     0.467000000    -1.956000000
C    -6.148000000    -0.713000000    -1.141000000
H    -5.831000000    -0.742000000    -0.102000000
C    -6.649000000     0.350000000    -3.256000000
H    -6.876000000     1.247000000    -3.826000000
C    -6.780000000    -0.915000000    -3.839000000
H    -6.927000000    -1.106000000    -4.899000000
C    -6.575000000    -2.069000000    -3.085000000
H    -6.625000000    -3.070000000    -3.505000000
C    -6.363000000    -1.980000000    -1.711000000
O    -6.305000000    -3.130000000    -0.968000000
C    -5.062000000    -3.686000000    -0.655000000
C    -4.937000000    -4.434000000     0.488000000
H    -5.776000000    -4.750000000     1.102000000
C    -3.694000000    -4.809000000     0.941000000
O    -3.629000000    -5.549000000     2.157000000
C    -2.450000000    -5.917000000     2.787000000
C    -1.819000000    -5.125000000     3.753000000
H    -2.176000000    -4.136000000     4.028000000
C    -1.783000000    -7.082000000     2.454000000
H    -2.240000000    -7.648000000     1.646000000
C    -0.631000000    -7.427000000     3.075000000
H    -0.080000000    -8.319000000     2.785000000
C    -0.027000000    -6.620000000     4.033000000
H     0.952000000    -6.894000000     4.418000000
C    -0.638000000    -5.472000000     4.398000000
O    -0.080000000    -4.504000000     5.248000000
C     0.832000000    -3.555000000     4.873000000
C     1.264000000    -2.598000000     5.823000000
H     0.903000000    -2.756000000     6.836000000
C     2.305000000    -1.716000000     5.519000000
O     2.721000000    -0.828000000     6.499000000
C     3.168000000     0.454000000     6.293000000
C     2.245000000     1.371000000     5.783000000
H     1.202000000     1.175000000     5.549000000
C     4.434000000     0.806000000     6.694000000
H     5.083000000     0.000000000     7.025000000
C     4.818000000     2.155000000     6.541000000
H     5.862000000     2.427000000     6.671000000
C     3.972000000     3.118000000     6.086000000
H     4.347000000     4.136000000     6.015000000
C     2.629000000     2.772000000     5.734000000
O     1.736000000     3.676000000     5.335000000
C     1.624000000     4.158000000     4.041000000
C     0.554000000     5.033000000     3.805000000
H    -0.185000000     5.347000000     4.538000000
C     0.304000000     5.454000000     2.495000000
O    -0.866000000     6.209000000     2.204000000
C    -1.325000000     6.698000000     0.985000000
C    -0.785000000     7.829000000     0.417000000
H     0.027000000     8.334000000     0.934000000
C    -1.155000000     8.299000000    -0.892000000
H    -0.681000000     9.111000000    -1.437000000
C    -2.171000000     7.639000000    -1.466000000
H    -2.380000000     7.938000000    -2.489000000
C    -2.841000000     6.558000000    -0.907000000
C    -2.385000000     6.056000000     0.313000000
H    -2.789000000     5.167000000     0.788000000
C    -2.189000000    -1.101000000     1.360000000
H    -2.086000000    -2.090000000     1.799000000
C    -1.228000000    -0.703000000     0.411000000
H    -0.377000000    -1.364000000     0.262000000
C    -1.143000000     0.599000000    -0.004000000
H    -0.359000000     0.849000000    -0.730000000
C    -2.138000000     1.515000000     0.359000000
H    -1.971000000     2.562000000     0.117000000
C    -3.143000000     1.099000000     1.258000000
H    -3.858000000     1.801000000     1.680000000
C    -3.131000000    -0.201000000     1.808000000
C    -4.008000000    -0.577000000     2.986000000
O    -4.873000000     0.182000000     3.388000000
O    -3.840000000    -1.652000000     3.506000000
O    -6.854000000    -1.994000000     2.421000000
H    -7.092000000    -2.851000000     2.776000000
H    -6.160000000    -1.680000000     3.000000000
O    -6.377000000    -2.385000000     6.485000000
H    -5.643000000    -2.657000000     5.935000000
H    -6.139000000    -2.677000000     7.365000000
O    -6.189000000    -4.791000000     4.133000000
H    -7.082000000    -4.649000000     3.820000000
H    -5.953000000    -5.657000000     3.799000000
O    -3.155000000     2.321000000     4.831000000
H    -3.796000000     1.676000000     4.533000000
H    -3.672000000     2.972000000     5.307000000
O    -4.162000000    -3.383000000     5.260000000
H    -4.882000000    -3.901000000     4.898000000
H    -3.976000000    -2.729000000     4.586000000
O    -1.694000000     1.282000000     6.955000000
H    -1.694000000     0.359000000     6.702000000
H    -1.866000000     1.755000000     6.141000000
O    -4.865000000    -5.602000000     6.704000000
H    -4.669000000    -4.761000000     6.291000000
H    -4.377000000    -5.584000000     7.527000000
O    -8.954000000     1.429000000     5.966000000
H    -8.576000000     0.766000000     6.544000000
H    -8.893000000     1.046000000     5.091000000
O    -6.514000000     1.780000000     2.172000000
H    -7.167000000     1.239000000     1.728000000
H    -5.857000000     1.157000000     2.482000000
O    -3.201000000     5.628000000     3.669000000
H    -3.785000000     4.870000000     3.643000000
H    -2.471000000     5.388000000     3.098000000
O    -5.541000000     0.443000000     6.169000000
H    -5.375000000     0.259000000     5.244000000
H    -6.142000000    -0.248000000     6.447000000
O    -1.688000000    -0.794000000     5.221000000
H    -2.374000000    -1.132000000     4.645000000
H    -1.034000000    -0.428000000     4.626000000
O    -2.521000000    -2.015000000     7.572000000
H    -1.948000000    -2.766000000     7.726000000
H    -2.423000000    -1.827000000     6.638000000
O    -5.343000000     3.855000000     3.359000000
H    -5.893000000     4.065000000     4.113000000
H    -5.731000000     3.061000000     2.992000000
O    -8.828000000    -0.536000000     4.017000000
H    -8.327000000    -1.151000000     3.481000000
H    -9.687000000    -0.497000000     3.597000000
O    -8.499000000     0.130000000     0.913000000
H    -8.992000000    -0.087000000     0.121000000
H    -8.124000000    -0.703000000     1.197000000
O    -0.712000000     1.066000000     3.327000000
H    -1.520000000     1.532000000     3.543000000
H    -0.722000000     1.001000000     2.372000000
O    -4.964000000     2.205000000     8.405000000
H    -5.099000000     1.685000000     7.613000000
H    -5.555000000     1.816000000     9.050000000
O    -9.365000000     2.524000000     2.360000000
H    -9.914000000     1.937000000     1.840000000
H    -8.653000000     1.968000000     2.677000000
