215
-1433.58694
C    -2.344000000    -4.192000000     0.553000000
H    -1.358000000    -4.377000000     0.969000000
C    -2.363000000    -3.817000000    -0.755000000
C    -3.638000000    -3.594000000    -1.378000000
H    -3.776000000    -3.355000000    -2.429000000
C    -1.120000000    -3.577000000    -1.506000000
O    -0.011000000    -4.526000000    -1.196000000
H    -0.773000000    -2.547000000    -1.338000000
O    -1.304000000    -3.689000000    -2.931000000
C    -0.742000000    -2.723000000    -3.652000000
C    -1.530000000    -1.594000000    -3.913000000
H    -2.505000000    -1.560000000    -3.434000000
C    -0.997000000    -0.437000000    -4.495000000
O    -1.829000000     0.699000000    -4.660000000
C     0.368000000    -0.392000000    -4.809000000
C     1.084000000     0.879000000    -5.457000000
H     1.973000000     0.503000000    -5.967000000
C     1.460000000     1.836000000    -4.328000000
C     2.768000000     1.783000000    -3.884000000
H     3.515000000     1.224000000    -4.442000000
H     0.506000000     1.422000000    -6.207000000
C     1.097000000    -1.571000000    -4.608000000
H     2.143000000    -1.463000000    -4.884000000
C     0.614000000    -2.718000000    -3.989000000
C     1.580000000    -3.875000000    -3.608000000
H     2.470000000    -3.843000000    -4.240000000
H     0.994000000    -4.766000000    -3.843000000
C     2.026000000    -3.648000000    -2.176000000
C     3.258000000    -3.066000000    -1.968000000
H     3.842000000    -2.753000000    -2.830000000
C     1.277000000    -4.071000000    -1.095000000
C     1.790000000    -4.000000000     0.148000000
H     1.182000000    -4.292000000     1.000000000
C     3.036000000    -3.495000000     0.400000000
O     3.451000000    -3.317000000     1.632000000
C     3.180000000    -2.065000000     2.271000000
C     2.685000000    -2.170000000     3.751000000
C     3.169000000    -1.313000000     4.759000000
H     3.890000000    -0.550000000     4.478000000
C     1.728000000    -3.120000000     4.083000000
H     1.432000000    -3.851000000     3.334000000
O     4.368000000    -1.348000000     2.227000000
H     2.348000000    -1.606000000     1.717000000
C     3.838000000    -3.044000000    -0.705000000
C     5.173000000    -2.330000000    -0.471000000
H     5.887000000    -2.367000000    -1.296000000
H     5.783000000    -2.763000000     0.324000000
C     4.887000000    -0.916000000    -0.115000000
C     5.059000000     0.066000000    -1.095000000
H     5.470000000    -0.149000000    -2.078000000
C     4.601000000    -0.521000000     1.177000000
C     4.181000000     0.780000000     1.384000000
H     3.869000000     1.116000000     2.369000000
C     4.286000000     1.756000000     0.373000000
O     3.795000000     3.045000000     0.598000000
C     2.398000000     3.289000000     0.253000000
C     1.713000000     4.106000000     1.356000000
C     1.977000000     3.814000000     2.685000000
H     2.807000000     3.174000000     2.975000000
C     0.584000000     4.818000000     1.028000000
H     0.326000000     4.961000000    -0.018000000
O     2.476000000     3.956000000    -0.942000000
H     1.790000000     2.382000000     0.118000000
C     4.620000000     1.388000000    -0.874000000
C     4.588000000     2.332000000    -2.105000000
H     5.217000000     1.929000000    -2.902000000
H     5.098000000     3.288000000    -1.963000000
C     3.168000000     2.461000000    -2.708000000
C     2.199000000     3.280000000    -2.110000000
C     0.939000000     3.350000000    -2.611000000
H     0.229000000     4.038000000    -2.157000000
C     0.536000000     2.670000000    -3.703000000
O    -0.829000000     2.745000000    -3.990000000
C    -1.714000000     1.621000000    -3.557000000
H    -1.247000000     1.085000000    -2.718000000
C    -3.008000000     2.154000000    -3.033000000
C    -4.143000000     1.259000000    -2.920000000
H    -4.104000000     0.209000000    -3.200000000
C    -3.114000000     3.474000000    -2.590000000
H    -2.267000000     4.154000000    -2.632000000
C    -4.357000000     3.948000000    -2.181000000
O    -4.475000000     5.294000000    -1.831000000
C    -5.375000000     3.046000000    -2.080000000
H    -6.299000000     3.405000000    -1.635000000
C    -5.309000000     1.722000000    -2.449000000
O    -6.392000000     0.979000000    -2.141000000
C    -6.463000000    -0.323000000    -2.558000000
C    -6.261000000    -1.395000000    -1.710000000
H    -6.110000000    -1.192000000    -0.653000000
C    -6.635000000    -0.544000000    -3.901000000
H    -6.848000000     0.321000000    -4.524000000
C    -6.730000000    -1.816000000    -4.444000000
H    -7.014000000    -1.903000000    -5.490000000
C    -6.642000000    -2.898000000    -3.545000000
H    -6.627000000    -3.936000000    -3.865000000
C    -6.293000000    -2.696000000    -2.242000000
O    -6.029000000    -3.728000000    -1.363000000
C    -4.846000000    -3.822000000    -0.672000000
C    -4.781000000    -4.198000000     0.668000000
H    -5.726000000    -4.277000000     1.199000000
C    -3.540000000    -4.430000000     1.240000000
O    -3.487000000    -4.567000000     2.567000000
C    -2.424000000    -5.056000000     3.262000000
C    -1.709000000    -4.183000000     4.094000000
H    -2.015000000    -3.145000000     4.199000000
C    -1.944000000    -6.309000000     2.913000000
H    -2.431000000    -6.829000000     2.092000000
C    -0.885000000    -6.760000000     3.610000000
H    -0.384000000    -7.694000000     3.369000000
C    -0.205000000    -6.041000000     4.575000000
H     0.613000000    -6.527000000     5.102000000
C    -0.598000000    -4.688000000     4.774000000
O     0.098000000    -3.989000000     5.689000000
C     1.096000000    -3.123000000     5.378000000
C     1.461000000    -2.109000000     6.303000000
H     1.099000000    -2.091000000     7.328000000
C     2.535000000    -1.207000000     5.991000000
O     3.013000000    -0.310000000     6.858000000
C     3.119000000     0.977000000     6.542000000
C     2.142000000     1.688000000     5.901000000
H     1.116000000     1.329000000     5.899000000
C     4.379000000     1.561000000     6.806000000
H     5.156000000     0.982000000     7.298000000
C     4.724000000     2.799000000     6.256000000
H     5.683000000     3.288000000     6.407000000
C     3.647000000     3.551000000     5.640000000
H     3.684000000     4.590000000     5.325000000
C     2.375000000     3.009000000     5.459000000
O     1.326000000     3.710000000     4.964000000
C     1.078000000     4.209000000     3.688000000
C    -0.062000000     4.894000000     3.392000000
H    -0.647000000     5.202000000     4.255000000
C    -0.288000000     5.319000000     2.044000000
O    -1.480000000     5.950000000     1.669000000
C    -1.920000000     6.341000000     0.502000000
C    -1.337000000     7.375000000    -0.191000000
H    -0.370000000     7.767000000     0.115000000
C    -1.869000000     7.768000000    -1.465000000
H    -1.267000000     8.452000000    -2.057000000
C    -2.922000000     7.022000000    -2.013000000
H    -3.269000000     7.129000000    -3.038000000
C    -3.520000000     6.024000000    -1.292000000
C    -3.053000000     5.669000000     0.003000000
H    -3.515000000     4.834000000     0.523000000
C    -1.573000000    -1.150000000     1.317000000
H    -1.907000000    -1.888000000     2.042000000
C    -0.299000000    -1.159000000     0.701000000
H     0.388000000    -1.990000000     0.844000000
C     0.093000000    -0.082000000    -0.148000000
H     1.109000000    -0.143000000    -0.694000000
C    -0.686000000     1.041000000    -0.263000000
H    -0.432000000     1.866000000    -0.924000000
C    -1.981000000     1.042000000     0.373000000
H    -2.626000000     1.890000000     0.161000000
C    -2.411000000    -0.037000000     1.127000000
C    -3.751000000     0.056000000     1.850000000
O    -4.429000000     1.059000000     1.755000000
O    -4.053000000    -0.722000000     2.726000000
O    -8.508000000    -2.178000000     3.461000000
H    -8.797000000    -2.413000000     4.343000000
H    -7.643000000    -2.579000000     3.377000000
O    -4.754000000    -1.423000000     5.924000000
H    -4.998000000    -0.607000000     5.489000000
H    -4.759000000    -2.078000000     5.226000000
O    -3.067000000     3.165000000     3.012000000
H    -3.689000000     2.442000000     2.931000000
H    -2.346000000     2.927000000     2.429000000
O    -5.371000000    -2.740000000     3.627000000
H    -4.976000000    -3.526000000     3.251000000
H    -4.988000000    -2.017000000     3.129000000
O    -1.334000000     1.746000000     6.704000000
H    -0.988000000     1.126000000     7.346000000
H    -1.365000000     1.250000000     5.885000000
O    -8.975000000     1.949000000    -1.027000000
H    -9.224000000     1.062000000    -1.285000000
H    -8.227000000     1.828000000    -0.443000000
O    -8.193000000     2.270000000     5.834000000
H    -7.910000000     1.850000000     5.022000000
H    -7.651000000     1.868000000     6.513000000
O    -6.709000000     1.712000000     0.727000000
H    -6.930000000     0.890000000     0.290000000
H    -5.856000000     1.548000000     1.129000000
O    -3.622000000     5.777000000     3.465000000
H    -3.727000000     4.832000000     3.577000000
H    -2.877000000     5.866000000     2.870000000
O    -5.434000000     0.790000000     4.468000000
H    -4.743000000     0.338000000     3.983000000
H    -6.207000000     0.717000000     3.908000000
O    -2.090000000    -0.092000000     4.731000000
H    -2.526000000    -0.641000000     4.078000000
H    -1.349000000     0.294000000     4.264000000
O    -1.887000000    -1.460000000     7.251000000
H    -1.375000000    -2.266000000     7.317000000
H    -1.859000000    -1.234000000     6.321000000
O    -5.007000000    -0.944000000     8.556000000
H    -4.712000000    -1.153000000     7.670000000
H    -4.199000000    -0.850000000     9.061000000
O    -3.434000000     3.660000000     6.333000000
H    -2.823000000     2.923000000     6.346000000
H    -3.794000000     3.658000000     5.446000000
O    -8.864000000    -0.547000000     1.008000000
H    -8.750000000    -1.237000000     0.355000000
H    -8.923000000    -1.014000000     1.842000000
O    -0.459000000     1.405000000     2.923000000
H     0.079000000     2.194000000     2.983000000
H    -0.765000000     1.393000000     2.016000000
O    -6.935000000     4.464000000     0.608000000
H    -6.970000000     3.507000000     0.636000000
H    -6.890000000     4.729000000     1.526000000
O    -5.922000000     3.584000000     4.697000000
H    -5.597000000     2.691000000     4.580000000
H    -6.185000000     3.624000000     5.617000000
O    -7.831000000     0.907000000     3.332000000
H    -7.386000000     1.239000000     2.552000000
H    -8.350000000     0.169000000     3.015000000
