215
-1437.51147
C    -2.980000000    -3.907000000     0.153000000
H    -2.067000000    -4.287000000     0.606000000
C    -2.913000000    -3.407000000    -1.137000000
C    -4.018000000    -2.855000000    -1.738000000
H    -3.889000000    -2.344000000    -2.689000000
C    -1.581000000    -3.364000000    -1.904000000
O    -0.823000000    -4.541000000    -1.566000000
H    -0.996000000    -2.491000000    -1.577000000
O    -1.755000000    -3.240000000    -3.369000000
C    -0.978000000    -2.281000000    -3.860000000
C    -1.574000000    -1.036000000    -4.157000000
H    -2.578000000    -0.781000000    -3.830000000
C    -0.776000000    -0.016000000    -4.572000000
O    -1.415000000     1.228000000    -4.636000000
C     0.606000000    -0.207000000    -4.774000000
C     1.492000000     0.906000000    -5.286000000
H     2.265000000     0.372000000    -5.843000000
C     2.029000000     1.789000000    -4.143000000
C     3.261000000     1.465000000    -3.455000000
H     3.899000000     0.635000000    -3.748000000
H     0.821000000     1.465000000    -5.942000000
C     1.156000000    -1.491000000    -4.558000000
H     2.189000000    -1.639000000    -4.862000000
C     0.326000000    -2.487000000    -4.083000000
C     0.892000000    -3.848000000    -3.820000000
H     1.694000000    -4.239000000    -4.449000000
H     0.058000000    -4.527000000    -4.009000000
C     1.392000000    -3.968000000    -2.385000000
C     2.699000000    -3.625000000    -2.051000000
H     3.314000000    -3.277000000    -2.877000000
C     0.530000000    -4.356000000    -1.333000000
C     0.988000000    -4.424000000    -0.021000000
H     0.318000000    -4.723000000     0.782000000
C     2.263000000    -4.060000000     0.263000000
O     2.591000000    -4.002000000     1.626000000
C     2.519000000    -2.697000000     2.297000000
C     1.911000000    -2.799000000     3.663000000
C     2.082000000    -1.823000000     4.575000000
H     2.581000000    -0.895000000     4.308000000
C     1.112000000    -3.915000000     3.946000000
H     0.945000000    -4.751000000     3.273000000
O     3.858000000    -2.155000000     2.347000000
H     1.980000000    -2.003000000     1.635000000
C     3.140000000    -3.688000000    -0.758000000
C     4.582000000    -3.170000000    -0.439000000
H     5.281000000    -3.202000000    -1.277000000
H     5.107000000    -3.626000000     0.403000000
C     4.567000000    -1.710000000     0.049000000
C     4.760000000    -0.741000000    -0.948000000
H     4.986000000    -1.094000000    -1.951000000
C     4.272000000    -1.317000000     1.364000000
C     4.169000000    -0.007000000     1.669000000
H     3.812000000     0.387000000     2.617000000
C     4.451000000     0.979000000     0.685000000
O     4.187000000     2.290000000     1.023000000
C     2.923000000     2.715000000     0.620000000
C     2.303000000     3.591000000     1.754000000
C     2.645000000     3.323000000     3.098000000
H     3.294000000     2.496000000     3.373000000
C     1.431000000     4.600000000     1.441000000
H     1.116000000     4.688000000     0.404000000
O     3.064000000     3.634000000    -0.529000000
H     2.316000000     1.807000000     0.492000000
C     4.777000000     0.611000000    -0.636000000
C     4.973000000     1.674000000    -1.695000000
H     5.637000000     1.315000000    -2.485000000
H     5.638000000     2.454000000    -1.320000000
C     3.627000000     2.080000000    -2.271000000
C     2.783000000     3.075000000    -1.769000000
C     1.592000000     3.396000000    -2.397000000
H     0.999000000     4.146000000    -1.880000000
C     1.198000000     2.719000000    -3.529000000
O    -0.088000000     2.961000000    -3.864000000
C    -1.126000000     2.026000000    -3.504000000
H    -0.821000000     1.316000000    -2.721000000
C    -2.377000000     2.802000000    -3.082000000
C    -3.687000000     2.289000000    -3.443000000
H    -3.850000000     1.370000000    -4.001000000
C    -2.295000000     4.064000000    -2.347000000
H    -1.287000000     4.441000000    -2.191000000
C    -3.381000000     4.752000000    -1.972000000
O    -3.352000000     5.904000000    -1.163000000
C    -4.666000000     4.155000000    -2.233000000
H    -5.550000000     4.512000000    -1.710000000
C    -4.780000000     2.920000000    -2.943000000
O    -6.070000000     2.458000000    -3.049000000
C    -6.386000000     1.137000000    -3.274000000
C    -6.197000000     0.174000000    -2.288000000
H    -5.970000000     0.404000000    -1.249000000
C    -6.745000000     0.734000000    -4.575000000
H    -6.993000000     1.494000000    -5.311000000
C    -6.754000000    -0.625000000    -4.875000000
H    -7.006000000    -0.874000000    -5.903000000
C    -6.521000000    -1.559000000    -3.854000000
H    -6.612000000    -2.613000000    -4.100000000
C    -6.245000000    -1.154000000    -2.542000000
O    -6.248000000    -2.070000000    -1.541000000
C    -5.184000000    -2.671000000    -0.948000000
C    -5.261000000    -3.215000000     0.374000000
H    -6.189000000    -3.186000000     0.938000000
C    -4.141000000    -3.783000000     0.927000000
O    -4.137000000    -4.162000000     2.274000000
C    -3.161000000    -4.965000000     2.872000000
C    -2.504000000    -4.599000000     4.027000000
H    -2.543000000    -3.569000000     4.372000000
C    -3.092000000    -6.298000000     2.457000000
H    -3.751000000    -6.537000000     1.627000000
C    -1.969000000    -7.072000000     2.835000000
H    -1.707000000    -8.009000000     2.350000000
C    -1.158000000    -6.557000000     3.818000000
H    -0.200000000    -7.020000000     4.039000000
C    -1.463000000    -5.363000000     4.514000000
O    -0.580000000    -4.890000000     5.413000000
C     0.369000000    -3.921000000     5.115000000
C     0.488000000    -2.835000000     5.950000000
H    -0.133000000    -2.813000000     6.842000000
C     1.425000000    -1.800000000     5.727000000
O     1.472000000    -0.805000000     6.691000000
C     2.312000000     0.289000000     6.454000000
C     1.872000000     1.509000000     5.948000000
H     0.854000000     1.597000000     5.579000000
C     3.616000000     0.165000000     7.061000000
H     3.905000000    -0.766000000     7.544000000
C     4.458000000     1.329000000     7.061000000
H     5.477000000     1.212000000     7.420000000
C     4.053000000     2.509000000     6.368000000
H     4.756000000     3.337000000     6.407000000
C     2.705000000     2.614000000     5.921000000
O     2.169000000     3.740000000     5.424000000
C     1.972000000     4.064000000     4.096000000
C     1.146000000     5.124000000     3.732000000
H     0.689000000     5.687000000     4.542000000
C     0.877000000     5.422000000     2.414000000
O     0.070000000     6.458000000     2.120000000
C    -0.348000000     6.804000000     0.849000000
C     0.080000000     7.873000000     0.143000000
H     0.866000000     8.523000000     0.519000000
C    -0.595000000     8.320000000    -1.045000000
H    -0.248000000     9.219000000    -1.547000000
C    -1.757000000     7.588000000    -1.455000000
H    -2.201000000     7.888000000    -2.400000000
C    -2.122000000     6.450000000    -0.811000000
C    -1.428000000     6.068000000     0.341000000
H    -1.825000000     5.237000000     0.918000000
C    -2.690000000    -0.704000000     1.155000000
H    -3.313000000    -1.528000000     1.492000000
C    -1.390000000    -1.103000000     0.818000000
H    -1.101000000    -2.085000000     1.182000000
C    -0.488000000    -0.176000000     0.296000000
H     0.526000000    -0.539000000     0.006000000
C    -0.801000000     1.156000000     0.256000000
H    -0.068000000     1.893000000    -0.062000000
C    -2.119000000     1.497000000     0.553000000
H    -2.371000000     2.555000000     0.547000000
C    -3.104000000     0.655000000     1.041000000
C    -4.517000000     1.160000000     1.309000000
O    -4.620000000     2.386000000     1.554000000
O    -5.503000000     0.416000000     1.403000000
O    -9.976000000     4.620000000     0.442000000
H   -10.552000000     3.856000000     0.458000000
H    -9.100000000     4.257000000     0.313000000
O    -3.793000000     4.004000000     3.471000000
H    -4.201000000     3.417000000     2.834000000
H    -2.978000000     3.565000000     3.714000000
O    -8.109000000    -0.309000000     1.946000000
H    -7.233000000     0.040000000     1.783000000
H    -8.245000000    -0.951000000     1.248000000
O    -8.838000000     3.030000000    -2.739000000
H    -7.882000000     3.055000000    -2.717000000
H    -9.056000000     2.107000000    -2.608000000
O    -6.494000000    -3.715000000     4.381000000
H    -6.503000000    -2.871000000     3.929000000
H    -6.646000000    -4.358000000     3.689000000
O    -2.200000000     6.364000000     3.647000000
H    -1.409000000     6.022000000     3.230000000
H    -2.839000000     5.657000000     3.563000000
O    -7.546000000     3.263000000     0.481000000
H    -7.141000000     4.129000000     0.522000000
H    -6.854000000     2.661000000     0.753000000
O    -5.249000000     7.261000000     3.715000000
H    -6.110000000     7.122000000     4.109000000
H    -4.884000000     6.381000000     3.620000000
O   -10.164000000     1.381000000     2.413000000
H    -9.374000000     0.961000000     2.073000000
H    -9.970000000     1.544000000     3.336000000
O    -3.042000000    -0.600000000     4.794000000
H    -2.935000000    -0.871000000     5.706000000
H    -2.418000000     0.117000000     4.683000000
O    -5.463000000     3.241000000     5.715000000
H    -4.785000000     3.575000000     5.126000000
H    -6.183000000     2.994000000     5.135000000
O    -5.416000000    -1.352000000     3.618000000
H    -4.550000000    -1.164000000     3.982000000
H    -5.438000000    -0.866000000     2.794000000
O    -8.824000000     3.949000000     3.516000000
H    -9.089000000     4.170000000     2.624000000
H    -8.049000000     3.398000000     3.407000000
O    -6.184000000    -1.673000000     6.507000000
H    -6.047000000    -1.765000000     5.564000000
H    -5.308000000    -1.526000000     6.864000000
O    -1.360000000     3.073000000     3.827000000
H    -1.523000000     3.071000000     4.771000000
H    -1.199000000     2.155000000     3.610000000
O    -0.867000000     0.359000000     3.364000000
H    -1.251000000     0.289000000     2.491000000
H    -0.577000000    -0.529000000     3.571000000
O    -5.868000000     5.384000000     0.732000000
H    -5.550000000     6.272000000     0.891000000
H    -5.082000000     4.883000000     0.515000000
O    -6.851000000     2.335000000     3.238000000
H    -6.143000000     2.341000000     2.594000000
H    -7.461000000     1.671000000     2.917000000
O    -8.774000000    -1.731000000    -0.144000000
H    -8.017000000    -1.868000000    -0.714000000
H    -9.299000000    -1.072000000    -0.598000000
