215
-1450.73857
C    -3.018000000    -4.131000000     0.967000000
H    -2.187000000    -4.704000000     1.372000000
C    -3.036000000    -3.662000000    -0.356000000
C    -4.150000000    -2.858000000    -0.782000000
H    -4.237000000    -2.405000000    -1.767000000
C    -1.753000000    -3.806000000    -1.292000000
O    -0.981000000    -5.015000000    -0.913000000
H    -1.143000000    -2.951000000    -0.964000000
O    -2.053000000    -3.659000000    -2.693000000
C    -1.151000000    -2.812000000    -3.290000000
C    -1.666000000    -1.576000000    -3.531000000
H    -2.637000000    -1.244000000    -3.171000000
C    -1.028000000    -0.630000000    -4.341000000
O    -1.626000000     0.610000000    -4.562000000
C     0.232000000    -1.060000000    -4.845000000
C     1.035000000     0.036000000    -5.593000000
H     1.755000000    -0.494000000    -6.221000000
C     1.752000000     0.971000000    -4.589000000
C     2.961000000     0.637000000    -3.933000000
H     3.452000000    -0.315000000    -4.117000000
H     0.364000000     0.544000000    -6.288000000
C     0.830000000    -2.336000000    -4.575000000
H     1.824000000    -2.660000000    -4.874000000
C     0.083000000    -3.266000000    -3.777000000
C     0.644000000    -4.541000000    -3.373000000
H     1.542000000    -4.637000000    -3.987000000
H    -0.093000000    -5.336000000    -3.502000000
C     1.171000000    -4.427000000    -1.973000000
C     2.516000000    -4.062000000    -1.770000000
H     3.184000000    -3.931000000    -2.617000000
C     0.392000000    -4.724000000    -0.859000000
C     0.812000000    -4.504000000     0.448000000
H     0.134000000    -4.599000000     1.292000000
C     2.187000000    -4.129000000     0.597000000
O     2.604000000    -3.839000000     1.916000000
C     2.715000000    -2.475000000     2.359000000
C     2.224000000    -2.410000000     3.777000000
C     2.757000000    -1.459000000     4.609000000
H     3.503000000    -0.712000000     4.351000000
C     1.184000000    -3.262000000     4.177000000
H     0.884000000    -4.097000000     3.550000000
O     4.108000000    -2.043000000     2.192000000
H     2.026000000    -1.876000000     1.746000000
C     3.029000000    -3.884000000    -0.520000000
C     4.443000000    -3.457000000    -0.303000000
H     4.995000000    -3.842000000    -1.163000000
H     4.880000000    -4.018000000     0.527000000
C     4.548000000    -1.933000000    -0.090000000
C     4.773000000    -1.084000000    -1.185000000
H     4.913000000    -1.614000000    -2.124000000
C     4.402000000    -1.309000000     1.088000000
C     4.468000000     0.112000000     1.219000000
H     4.459000000     0.574000000     2.204000000
C     4.547000000     0.915000000     0.100000000
O     4.350000000     2.265000000     0.220000000
C     3.160000000     2.868000000    -0.265000000
C     2.423000000     3.706000000     0.807000000
C     2.099000000     3.128000000     2.083000000
H     2.476000000     2.147000000     2.360000000
C     1.831000000     4.892000000     0.467000000
H     2.039000000     5.313000000    -0.513000000
O     3.321000000     3.410000000    -1.565000000
H     2.429000000     2.081000000    -0.503000000
C     4.777000000     0.317000000    -1.171000000
C     4.973000000     1.033000000    -2.497000000
H     5.511000000     0.449000000    -3.247000000
H     5.616000000     1.890000000    -2.287000000
C     3.609000000     1.477000000    -3.068000000
C     2.969000000     2.633000000    -2.613000000
C     1.656000000     2.904000000    -3.053000000
H     1.091000000     3.628000000    -2.470000000
C     1.092000000     2.147000000    -4.066000000
O    -0.213000000     2.486000000    -4.480000000
C    -1.234000000     1.754000000    -3.754000000
H    -0.730000000     1.345000000    -2.866000000
C    -2.406000000     2.672000000    -3.372000000
C    -3.686000000     2.125000000    -2.982000000
H    -3.884000000     1.058000000    -3.045000000
C    -2.216000000     4.081000000    -3.306000000
H    -1.238000000     4.469000000    -3.580000000
C    -3.151000000     4.869000000    -2.691000000
O    -2.999000000     6.280000000    -2.544000000
C    -4.401000000     4.367000000    -2.364000000
H    -5.113000000     5.056000000    -1.917000000
C    -4.684000000     3.035000000    -2.546000000
O    -5.868000000     2.572000000    -2.090000000
C    -6.303000000     1.255000000    -2.276000000
C    -6.221000000     0.342000000    -1.231000000
H    -6.044000000     0.703000000    -0.221000000
C    -6.683000000     0.791000000    -3.535000000
H    -6.788000000     1.456000000    -4.388000000
C    -6.956000000    -0.532000000    -3.747000000
H    -7.210000000    -0.743000000    -4.783000000
C    -6.781000000    -1.466000000    -2.789000000
H    -6.960000000    -2.522000000    -2.977000000
C    -6.356000000    -1.044000000    -1.506000000
O    -6.343000000    -1.955000000    -0.432000000
C    -5.238000000    -2.685000000     0.026000000
C    -5.239000000    -3.257000000     1.262000000
H    -6.131000000    -3.097000000     1.863000000
C    -4.133000000    -3.908000000     1.785000000
O    -4.199000000    -4.434000000     3.055000000
C    -3.109000000    -4.973000000     3.877000000
C    -2.256000000    -4.099000000     4.524000000
H    -2.401000000    -3.023000000     4.486000000
C    -2.908000000    -6.350000000     3.908000000
H    -3.561000000    -6.978000000     3.307000000
C    -1.847000000    -6.855000000     4.722000000
H    -1.700000000    -7.930000000     4.796000000
C    -0.967000000    -5.956000000     5.344000000
H    -0.165000000    -6.230000000     6.025000000
C    -1.173000000    -4.588000000     5.193000000
O    -0.420000000    -3.728000000     5.955000000
C     0.656000000    -3.043000000     5.473000000
C     1.192000000    -2.075000000     6.311000000
H     0.762000000    -1.880000000     7.291000000
C     2.196000000    -1.292000000     5.890000000
O     2.646000000    -0.339000000     6.793000000
C     2.680000000     1.008000000     6.426000000
C     1.822000000     1.558000000     5.447000000
H     1.150000000     0.894000000     4.910000000
C     3.655000000     1.871000000     7.031000000
H     4.321000000     1.467000000     7.789000000
C     3.709000000     3.209000000     6.722000000
H     4.427000000     3.807000000     7.277000000
C     2.834000000     3.743000000     5.769000000
H     2.838000000     4.776000000     5.431000000
C     1.870000000     2.903000000     5.152000000
O     1.034000000     3.432000000     4.192000000
C     1.421000000     3.921000000     2.970000000
C     0.897000000     5.167000000     2.606000000
H     0.311000000     5.782000000     3.284000000
C     0.979000000     5.616000000     1.321000000
O     0.236000000     6.823000000     1.035000000
C    -0.224000000     7.160000000    -0.235000000
C     0.549000000     7.984000000    -1.073000000
H     1.509000000     8.355000000    -0.724000000
C     0.129000000     8.202000000    -2.400000000
H     0.807000000     8.719000000    -3.075000000
C    -1.061000000     7.733000000    -2.812000000
H    -1.373000000     8.008000000    -3.816000000
C    -1.856000000     6.880000000    -2.042000000
C    -1.359000000     6.532000000    -0.775000000
H    -1.803000000     5.807000000    -0.097000000
C    -3.360000000     0.639000000     0.513000000
H    -4.183000000    -0.034000000     0.737000000
C    -2.171000000     0.153000000     0.008000000
H    -2.078000000    -0.916000000    -0.161000000
C    -1.054000000     0.988000000    -0.274000000
H    -0.141000000     0.525000000    -0.505000000
C    -1.172000000     2.352000000    -0.052000000
H    -0.340000000     3.036000000    -0.199000000
C    -2.414000000     2.836000000     0.423000000
H    -2.438000000     3.911000000     0.577000000
C    -3.489000000     2.045000000     0.810000000
C    -4.710000000     2.592000000     1.531000000
O    -4.755000000     3.744000000     1.793000000
O    -5.647000000     1.919000000     1.824000000
O    -8.761000000     5.586000000     2.360000000
H    -8.149000000     6.322000000     2.358000000
H    -8.791000000     5.301000000     3.273000000
O    -4.535000000     8.467000000     1.182000000
H    -3.617000000     8.240000000     1.334000000
H    -4.909000000     7.688000000     0.772000000
O    -2.999000000     4.887000000     3.244000000
H    -3.506000000     4.548000000     2.506000000
H    -2.844000000     4.122000000     3.799000000
O    -7.537000000    -2.105000000     4.148000000
H    -7.576000000    -1.712000000     5.021000000
H    -6.743000000    -1.741000000     3.757000000
O    -8.386000000     3.031000000     6.525000000
H    -8.055000000     2.366000000     5.920000000
H    -8.321000000     2.623000000     7.388000000
O    -9.540000000     2.935000000    -0.857000000
H    -8.925000000     3.180000000    -0.164000000
H    -9.810000000     2.045000000    -0.634000000
O    -2.029000000     7.256000000     3.814000000
H    -2.277000000     6.374000000     3.536000000
H    -1.758000000     7.694000000     3.007000000
O    -7.815000000     3.419000000     1.151000000
H    -7.787000000     4.212000000     1.686000000
H    -7.018000000     2.943000000     1.386000000
O    -6.657000000     7.457000000     2.829000000
H    -5.997000000     7.747000000     2.199000000
H    -6.748000000     8.192000000     3.435000000
O    -8.017000000     5.224000000    -1.522000000
H    -8.625000000     4.496000000    -1.652000000
H    -7.197000000     4.807000000    -1.257000000
O    -1.880000000     0.031000000     5.586000000
H    -1.088000000    -0.292000000     6.016000000
H    -1.721000000    -0.113000000     4.653000000
O    -6.309000000     5.083000000     3.847000000
H    -6.364000000     6.011000000     3.616000000
H    -5.743000000     4.703000000     3.175000000
O    -5.543000000    -0.318000000     3.427000000
H    -5.295000000    -0.104000000     4.326000000
H    -5.522000000     0.521000000     2.967000000
O    -3.570000000     2.247000000     6.910000000
H    -2.964000000     2.138000000     7.643000000
H    -4.023000000     1.406000000     6.847000000
O    -2.005000000     2.808000000     4.643000000
H    -2.551000000     2.767000000     5.429000000
H    -1.136000000     3.043000000     4.968000000
O    -1.358000000     0.720000000     2.920000000
H    -1.726000000     0.954000000     2.068000000
H    -1.533000000     1.481000000     3.473000000
O    -4.993000000     4.772000000     6.500000000
H    -4.762000000     3.941000000     6.914000000
H    -5.354000000     4.523000000     5.649000000
O    -5.296000000     5.972000000     0.597000000
H    -6.089000000     5.677000000     0.148000000
H    -5.041000000     5.230000000     1.145000000
O    -8.452000000     0.922000000     2.014000000
H    -8.355000000     1.845000000     1.780000000
H    -7.566000000     0.565000000     1.948000000
