215
-1470.93645
C    -2.740000000    -3.720000000     1.162000000
H    -1.711000000    -3.832000000     1.495000000
C    -3.045000000    -3.515000000    -0.214000000
C    -4.319000000    -3.036000000    -0.474000000
H    -4.588000000    -2.807000000    -1.503000000
C    -1.927000000    -3.580000000    -1.208000000
O    -1.178000000    -4.820000000    -1.057000000
H    -1.206000000    -2.767000000    -1.041000000
O    -2.393000000    -3.534000000    -2.615000000
C    -1.653000000    -2.781000000    -3.504000000
C    -2.261000000    -1.618000000    -4.033000000
H    -3.287000000    -1.371000000    -3.774000000
C    -1.446000000    -0.731000000    -4.764000000
O    -1.911000000     0.604000000    -4.953000000
C    -0.068000000    -1.002000000    -4.970000000
C     0.829000000    -0.009000000    -5.759000000
H     1.451000000    -0.595000000    -6.438000000
C     1.567000000     0.959000000    -4.835000000
C     2.793000000     0.637000000    -4.227000000
H     3.315000000    -0.249000000    -4.579000000
H     0.204000000     0.555000000    -6.454000000
C     0.523000000    -2.196000000    -4.404000000
H     1.587000000    -2.375000000    -4.531000000
C    -0.278000000    -3.069000000    -3.721000000
C     0.342000000    -4.441000000    -3.413000000
H     1.065000000    -4.647000000    -4.205000000
H    -0.386000000    -5.252000000    -3.477000000
C     0.996000000    -4.467000000    -2.053000000
C     2.342000000    -4.123000000    -1.898000000
H     2.931000000    -3.731000000    -2.723000000
C     0.145000000    -4.628000000    -0.888000000
C     0.704000000    -4.494000000     0.428000000
H     0.133000000    -4.595000000     1.348000000
C     2.050000000    -4.111000000     0.552000000
O     2.553000000    -3.911000000     1.854000000
C     2.574000000    -2.519000000     2.357000000
C     2.328000000    -2.375000000     3.873000000
C     2.827000000    -1.287000000     4.550000000
H     3.384000000    -0.547000000     3.980000000
C     1.395000000    -3.226000000     4.517000000
H     1.011000000    -4.043000000     3.913000000
O     3.922000000    -2.092000000     2.118000000
H     1.815000000    -1.995000000     1.758000000
C     2.862000000    -3.890000000    -0.613000000
C     4.301000000    -3.437000000    -0.519000000
H     4.961000000    -3.704000000    -1.347000000
H     4.797000000    -3.853000000     0.360000000
C     4.366000000    -1.960000000    -0.293000000
C     4.579000000    -1.162000000    -1.405000000
H     4.795000000    -1.639000000    -2.357000000
C     4.138000000    -1.372000000     0.955000000
C     4.171000000     0.010000000     1.017000000
H     4.050000000     0.505000000     1.977000000
C     4.419000000     0.803000000    -0.127000000
O     4.301000000     2.170000000    -0.056000000
C     3.024000000     2.709000000    -0.422000000
C     2.388000000     3.678000000     0.562000000
C     2.260000000     3.343000000     1.891000000
H     2.551000000     2.347000000     2.215000000
C     1.920000000     4.934000000     0.172000000
H     2.184000000     5.366000000    -0.791000000
O     3.022000000     3.242000000    -1.716000000
H     2.395000000     1.808000000    -0.391000000
C     4.577000000     0.231000000    -1.364000000
C     4.747000000     0.971000000    -2.771000000
H     5.324000000     0.361000000    -3.469000000
H     5.376000000     1.864000000    -2.753000000
C     3.349000000     1.384000000    -3.290000000
C     2.643000000     2.505000000    -2.783000000
C     1.450000000     2.907000000    -3.301000000
H     0.957000000     3.723000000    -2.778000000
C     0.950000000     2.114000000    -4.334000000
O    -0.378000000     2.380000000    -4.668000000
C    -1.387000000     1.574000000    -3.943000000
H    -0.942000000     0.919000000    -3.180000000
C    -2.493000000     2.470000000    -3.311000000
C    -3.621000000     1.794000000    -2.784000000
H    -3.837000000     0.745000000    -2.972000000
C    -2.199000000     3.833000000    -3.059000000
H    -1.261000000     4.298000000    -3.350000000
C    -3.083000000     4.564000000    -2.288000000
O    -2.964000000     5.897000000    -2.048000000
C    -4.211000000     3.970000000    -1.737000000
H    -4.955000000     4.477000000    -1.128000000
C    -4.432000000     2.598000000    -1.963000000
O    -5.567000000     2.016000000    -1.392000000
C    -6.110000000     0.793000000    -1.643000000
C    -6.019000000    -0.173000000    -0.638000000
H    -5.573000000    -0.098000000     0.351000000
C    -6.787000000     0.540000000    -2.856000000
H    -6.639000000     1.312000000    -3.607000000
C    -7.446000000    -0.691000000    -3.054000000
H    -8.046000000    -0.942000000    -3.925000000
C    -7.401000000    -1.602000000    -2.011000000
H    -7.874000000    -2.575000000    -2.113000000
C    -6.617000000    -1.410000000    -0.872000000
O    -6.573000000    -2.512000000     0.023000000
C    -5.351000000    -2.994000000     0.441000000
C    -5.054000000    -3.226000000     1.756000000
H    -5.762000000    -2.860000000     2.496000000
C    -3.772000000    -3.610000000     2.107000000
O    -3.469000000    -3.569000000     3.443000000
C    -2.539000000    -4.400000000     4.023000000
C    -1.688000000    -3.876000000     4.965000000
H    -1.629000000    -2.796000000     5.079000000
C    -2.542000000    -5.802000000     3.913000000
H    -3.306000000    -6.275000000     3.301000000
C    -1.676000000    -6.614000000     4.733000000
H    -1.783000000    -7.695000000     4.692000000
C    -0.773000000    -5.997000000     5.613000000
H    -0.116000000    -6.629000000     6.205000000
C    -0.828000000    -4.599000000     5.737000000
O     0.062000000    -3.849000000     6.448000000
C     1.027000000    -3.057000000     5.884000000
C     1.589000000    -1.956000000     6.546000000
H     1.279000000    -1.713000000     7.559000000
C     2.511000000    -1.112000000     5.903000000
O     2.926000000    -0.031000000     6.683000000
C     3.063000000     1.260000000     6.135000000
C     2.135000000     1.863000000     5.271000000
H     1.217000000     1.358000000     4.980000000
C     4.191000000     2.030000000     6.535000000
H     5.016000000     1.574000000     7.077000000
C     4.299000000     3.368000000     6.187000000
H     5.120000000     4.022000000     6.472000000
C     3.410000000     3.978000000     5.337000000
H     3.600000000     4.991000000     4.992000000
C     2.310000000     3.168000000     4.849000000
O     1.375000000     3.752000000     4.030000000
C     1.643000000     4.218000000     2.801000000
C     1.156000000     5.428000000     2.385000000
H     0.628000000     6.111000000     3.045000000
C     1.267000000     5.789000000     1.036000000
O     0.905000000     7.004000000     0.474000000
C     0.120000000     7.121000000    -0.599000000
C     0.577000000     7.958000000    -1.609000000
H     1.426000000     8.616000000    -1.448000000
C    -0.152000000     8.008000000    -2.826000000
H     0.252000000     8.710000000    -3.551000000
C    -1.349000000     7.320000000    -2.955000000
H    -1.900000000     7.428000000    -3.885000000
C    -1.801000000     6.560000000    -1.882000000
C    -1.040000000     6.423000000    -0.741000000
H    -1.365000000     5.797000000     0.086000000
C    -2.562000000     0.138000000     1.304000000
H    -3.245000000    -0.518000000     1.837000000
C    -1.460000000    -0.456000000     0.627000000
H    -1.255000000    -1.515000000     0.766000000
C    -0.557000000     0.247000000    -0.154000000
H     0.183000000    -0.299000000    -0.619000000
C    -0.723000000     1.607000000    -0.271000000
H     0.022000000     2.192000000    -0.804000000
C    -1.795000000     2.215000000     0.385000000
H    -1.952000000     3.291000000     0.415000000
C    -2.775000000     1.543000000     1.125000000
C    -3.931000000     2.170000000     1.902000000
O    -4.160000000     3.381000000     1.802000000
O    -4.583000000     1.508000000     2.697000000
O    -7.108000000     5.136000000     3.691000000
H    -6.453000000     5.831000000     3.756000000
H    -7.674000000     5.269000000     4.452000000
O    -2.604000000     5.359000000     2.782000000
H    -2.852000000     4.713000000     2.120000000
H    -2.220000000     4.841000000     3.490000000
O    -8.304000000    -1.861000000     2.977000000
H    -8.018000000    -2.072000000     3.866000000
H    -7.604000000    -1.309000000     2.626000000
O    -8.406000000     3.207000000    -0.654000000
H    -7.976000000     3.364000000     0.186000000
H    -7.785000000     2.668000000    -1.144000000
O    -0.691000000     4.813000000     6.102000000
H    -1.182000000     4.190000000     5.567000000
H     0.038000000     4.303000000     6.456000000
O    -4.813000000    -0.492000000     6.185000000
H    -4.030000000    -0.234000000     5.700000000
H    -4.501000000    -1.137000000     6.820000000
O    -1.615000000     8.029000000     2.785000000
H    -1.769000000     7.112000000     2.559000000
H    -1.987000000     8.522000000     2.054000000
O    -6.902000000     3.302000000     1.778000000
H    -7.079000000     4.073000000     2.317000000
H    -6.008000000     3.049000000     2.007000000
O    -4.722000000     6.746000000     3.870000000
H    -3.973000000     6.169000000     3.719000000
H    -4.333000000     7.602000000     4.048000000
O    -1.511000000     0.317000000     5.359000000
H    -0.835000000    -0.021000000     4.772000000
H    -1.446000000    -0.232000000     6.141000000
O    -5.299000000     3.384000000     5.037000000
H    -5.875000000     4.111000000     4.804000000
H    -5.256000000     2.848000000     4.245000000
O    -6.367000000    -0.299000000     3.565000000
H    -6.125000000    -0.388000000     4.487000000
H    -5.763000000     0.358000000     3.222000000
O    -6.532000000     1.836000000     7.011000000
H    -6.085000000     1.040000000     6.722000000
H    -6.067000000     2.545000000     6.567000000
O    -2.234000000     3.041000000     4.645000000
H    -3.004000000     2.740000000     4.163000000
H    -1.824000000     2.238000000     4.966000000
O    -0.003000000    -0.038000000     3.130000000
H     0.468000000     0.378000000     2.407000000
H    -0.920000000    -0.029000000     2.855000000
O    -8.683000000     6.678000000     1.795000000
H    -8.472000000     6.914000000     0.892000000
H    -7.903000000     6.225000000     2.113000000
O    -4.212000000     4.895000000     7.223000000
H    -3.725000000     4.543000000     7.968000000
H    -4.399000000     4.131000000     6.677000000
O    -5.040000000     6.069000000     0.942000000
H    -4.825000000     6.459000000     1.789000000
H    -4.750000000     5.160000000     1.016000000
O    -8.655000000     1.127000000     2.546000000
H    -8.404000000     2.036000000     2.384000000
H    -7.828000000     0.644000000     2.530000000
