215
-1476.68216
C    -2.519000000    -3.722000000     1.119000000
H    -1.539000000    -4.022000000     1.481000000
C    -2.697000000    -3.303000000    -0.197000000
C    -3.938000000    -2.713000000    -0.533000000
H    -4.017000000    -2.304000000    -1.538000000
C    -1.576000000    -3.481000000    -1.196000000
O    -0.868000000    -4.660000000    -0.772000000
H    -0.996000000    -2.550000000    -1.115000000
O    -1.930000000    -3.664000000    -2.570000000
C    -1.227000000    -2.841000000    -3.388000000
C    -1.870000000    -1.685000000    -3.849000000
H    -2.911000000    -1.513000000    -3.585000000
C    -1.153000000    -0.682000000    -4.387000000
O    -1.656000000     0.524000000    -4.530000000
C     0.154000000    -0.911000000    -4.723000000
C     0.980000000     0.134000000    -5.470000000
H     1.747000000    -0.344000000    -6.084000000
C     1.629000000     1.140000000    -4.543000000
C     2.830000000     0.876000000    -3.953000000
H     3.469000000     0.030000000    -4.192000000
H     0.335000000     0.599000000    -6.219000000
C     0.768000000    -2.138000000    -4.405000000
H     1.814000000    -2.324000000    -4.638000000
C     0.075000000    -3.096000000    -3.710000000
C     0.733000000    -4.421000000    -3.224000000
H     1.542000000    -4.533000000    -3.948000000
H    -0.044000000    -5.187000000    -3.267000000
C     1.265000000    -4.281000000    -1.838000000
C     2.587000000    -3.868000000    -1.643000000
H     3.099000000    -3.619000000    -2.569000000
C     0.497000000    -4.507000000    -0.655000000
C     1.061000000    -4.313000000     0.548000000
H     0.502000000    -4.558000000     1.447000000
C     2.388000000    -3.970000000     0.649000000
O     2.991000000    -3.845000000     1.917000000
C     2.995000000    -2.417000000     2.396000000
C     2.620000000    -2.417000000     3.836000000
C     3.000000000    -1.373000000     4.622000000
H     3.792000000    -0.693000000     4.320000000
C     1.761000000    -3.368000000     4.355000000
H     1.486000000    -4.203000000     3.716000000
O     4.312000000    -1.782000000     2.215000000
H     2.200000000    -1.871000000     1.868000000
C     3.210000000    -3.728000000    -0.447000000
C     4.611000000    -3.101000000    -0.333000000
H     5.230000000    -3.319000000    -1.206000000
H     5.089000000    -3.551000000     0.540000000
C     4.570000000    -1.596000000    -0.211000000
C     4.753000000    -0.759000000    -1.351000000
H     4.889000000    -1.280000000    -2.295000000
C     4.457000000    -1.017000000     1.071000000
C     4.349000000     0.355000000     1.203000000
H     4.133000000     0.736000000     2.198000000
C     4.447000000     1.148000000     0.083000000
O     4.213000000     2.520000000     0.306000000
C     2.881000000     2.946000000    -0.158000000
C     2.066000000     3.754000000     0.838000000
C     1.839000000     3.274000000     2.085000000
H     2.294000000     2.319000000     2.337000000
C     1.366000000     4.933000000     0.406000000
H     1.473000000     5.315000000    -0.606000000
O     2.944000000     3.649000000    -1.461000000
H     2.237000000     2.061000000    -0.272000000
C     4.698000000     0.624000000    -1.212000000
C     4.715000000     1.516000000    -2.394000000
H     5.286000000     0.968000000    -3.146000000
H     5.216000000     2.460000000    -2.168000000
C     3.338000000     1.741000000    -2.929000000
C     2.560000000     2.858000000    -2.586000000
C     1.347000000     3.175000000    -3.220000000
H     0.708000000     3.985000000    -2.879000000
C     0.871000000     2.303000000    -4.175000000
O    -0.472000000     2.435000000    -4.499000000
C    -1.328000000     1.660000000    -3.702000000
H    -0.705000000     1.381000000    -2.838000000
C    -2.540000000     2.521000000    -3.354000000
C    -3.711000000     1.854000000    -2.992000000
H    -3.671000000     0.768000000    -2.986000000
C    -2.464000000     3.919000000    -3.174000000
H    -1.512000000     4.430000000    -3.295000000
C    -3.666000000     4.602000000    -2.843000000
O    -3.652000000     5.948000000    -2.562000000
C    -4.866000000     3.963000000    -2.770000000
H    -5.764000000     4.570000000    -2.693000000
C    -4.900000000     2.594000000    -2.803000000
O    -6.092000000     1.981000000    -2.494000000
C    -6.253000000     0.673000000    -2.459000000
C    -6.107000000    -0.052000000    -1.289000000
H    -5.902000000     0.470000000    -0.358000000
C    -6.683000000     0.028000000    -3.618000000
H    -6.847000000     0.589000000    -4.534000000
C    -7.015000000    -1.305000000    -3.553000000
H    -7.434000000    -1.761000000    -4.447000000
C    -6.806000000    -2.015000000    -2.347000000
H    -7.047000000    -3.075000000    -2.336000000
C    -6.309000000    -1.405000000    -1.220000000
O    -6.202000000    -2.165000000    -0.052000000
C    -4.971000000    -2.592000000     0.335000000
C    -4.763000000    -3.041000000     1.683000000
H    -5.558000000    -3.014000000     2.424000000
C    -3.543000000    -3.625000000     2.054000000
O    -3.430000000    -4.044000000     3.377000000
C    -2.410000000    -4.718000000     3.916000000
C    -1.623000000    -4.123000000     4.882000000
H    -1.683000000    -3.039000000     4.941000000
C    -2.315000000    -6.133000000     3.772000000
H    -3.052000000    -6.592000000     3.117000000
C    -1.323000000    -6.843000000     4.440000000
H    -1.316000000    -7.916000000     4.265000000
C    -0.390000000    -6.173000000     5.262000000
H     0.362000000    -6.758000000     5.786000000
C    -0.566000000    -4.795000000     5.563000000
O     0.407000000    -4.129000000     6.210000000
C     1.240000000    -3.214000000     5.608000000
C     1.625000000    -2.145000000     6.422000000
H     1.388000000    -2.235000000     7.478000000
C     2.482000000    -1.146000000     5.903000000
O     2.898000000    -0.133000000     6.676000000
C     2.839000000     1.178000000     6.311000000
C     1.780000000     1.662000000     5.543000000
H     0.967000000     1.019000000     5.215000000
C     3.913000000     1.959000000     6.660000000
H     4.813000000     1.559000000     7.120000000
C     3.893000000     3.306000000     6.236000000
H     4.789000000     3.913000000     6.330000000
C     2.875000000     3.780000000     5.390000000
H     2.884000000     4.809000000     5.039000000
C     1.795000000     2.922000000     5.028000000
O     0.743000000     3.421000000     4.234000000
C     0.980000000     3.934000000     2.954000000
C     0.210000000     5.062000000     2.596000000
H    -0.535000000     5.491000000     3.262000000
C     0.399000000     5.484000000     1.269000000
O    -0.429000000     6.541000000     0.785000000
C    -0.787000000     6.629000000    -0.494000000
C    -0.029000000     7.458000000    -1.262000000
H     0.991000000     7.752000000    -1.028000000
C    -0.495000000     7.875000000    -2.503000000
H     0.144000000     8.505000000    -3.117000000
C    -1.716000000     7.341000000    -2.979000000
H    -2.017000000     7.645000000    -3.979000000
C    -2.430000000     6.496000000    -2.169000000
C    -1.994000000     6.157000000    -0.903000000
H    -2.570000000     5.486000000    -0.271000000
C    -2.126000000     0.037000000     1.283000000
H    -2.872000000    -0.552000000     1.811000000
C    -0.906000000    -0.448000000     0.820000000
H    -0.613000000    -1.468000000     1.056000000
C    -0.092000000     0.283000000    -0.023000000
H     0.872000000    -0.089000000    -0.370000000
C    -0.516000000     1.542000000    -0.370000000
H     0.127000000     2.173000000    -0.978000000
C    -1.769000000     2.007000000     0.001000000
H    -2.049000000     3.017000000    -0.290000000
C    -2.621000000     1.245000000     0.808000000
C    -3.926000000     1.841000000     1.387000000
O    -4.251000000     2.966000000     0.999000000
O    -4.549000000     1.300000000     2.281000000
O    -8.060000000     3.889000000     3.284000000
H    -8.164000000     4.585000000     2.635000000
H    -8.848000000     3.947000000     3.826000000
O    -3.253000000     4.837000000     2.670000000
H    -3.121000000     4.062000000     2.124000000
H    -4.020000000     5.268000000     2.294000000
O    -8.288000000    -2.443000000     3.838000000
H    -8.331000000    -2.561000000     4.787000000
H    -7.418000000    -2.075000000     3.682000000
O    -9.752000000     2.041000000    -0.738000000
H    -9.248000000     1.724000000     0.012000000
H   -10.243000000     1.276000000    -1.037000000
O    -6.172000000    -1.643000000     6.004000000
H    -6.201000000    -1.023000000     5.275000000
H    -5.310000000    -2.055000000     5.934000000
O    -2.599000000     6.841000000     4.505000000
H    -2.829000000     6.233000000     3.803000000
H    -3.441000000     7.165000000     4.826000000
O    -6.918000000     2.517000000     0.857000000
H    -6.726000000     3.242000000     0.263000000
H    -6.061000000     2.237000000     1.179000000
O    -5.387000000     6.750000000     2.415000000
H    -5.360000000     6.948000000     3.351000000
H    -6.270000000     7.002000000     2.143000000
O    -3.543000000     0.303000000     7.064000000
H    -3.220000000     0.500000000     6.185000000
H    -3.181000000    -0.560000000     7.265000000
O    -5.832000000     2.872000000     4.179000000
H    -6.513000000     3.259000000     3.628000000
H    -5.150000000     2.604000000     3.563000000
O    -6.538000000    -0.098000000     3.777000000
H    -6.614000000     0.740000000     4.232000000
H    -5.892000000     0.061000000     3.089000000
O    -8.152000000     2.225000000     6.169000000
H    -7.841000000     2.497000000     7.032000000
H    -7.446000000     2.470000000     5.571000000
O    -2.224000000     3.239000000     5.255000000
H    -2.569000000     3.955000000     4.721000000
H    -2.646000000     3.350000000     6.106000000
O    -2.955000000     0.533000000     4.641000000
H    -2.508000000     1.374000000     4.742000000
H    -3.240000000     0.522000000     3.727000000
O    -8.152000000     6.329000000     1.254000000
H    -8.983000000     6.170000000     0.808000000
H    -7.486000000     6.044000000     0.629000000
O    -5.273000000     4.511000000     6.175000000
H    -4.800000000     3.968000000     6.806000000
H    -5.572000000     3.895000000     5.506000000
O    -5.210000000     5.315000000     0.170000000
H    -4.953000000     4.422000000     0.401000000
H    -5.114000000     5.810000000     0.983000000
O    -9.109000000     1.177000000     2.428000000
H    -8.654000000     1.959000000     2.114000000
H    -8.423000000     0.513000000     2.499000000
O    -8.488000000     3.488000000    -2.627000000
H    -8.901000000     3.048000000    -1.884000000
H    -7.679000000     2.999000000    -2.776000000
