215
-1451.71982
C    -1.624000000    -5.166000000     0.770000000
H    -0.686000000    -5.289000000     1.305000000
C    -1.745000000    -4.639000000    -0.490000000
C    -3.013000000    -4.485000000    -1.021000000
H    -3.091000000    -3.995000000    -1.989000000
C    -0.470000000    -4.134000000    -1.305000000
O     0.679000000    -4.949000000    -0.894000000
H    -0.362000000    -3.062000000    -1.084000000
O    -0.712000000    -4.115000000    -2.706000000
C    -0.171000000    -3.042000000    -3.472000000
C    -1.115000000    -2.036000000    -3.863000000
H    -2.170000000    -2.150000000    -3.627000000
C    -0.609000000    -1.003000000    -4.641000000
O    -1.450000000     0.024000000    -4.774000000
C     0.788000000    -0.826000000    -4.712000000
C     1.436000000     0.442000000    -5.340000000
H     2.360000000     0.181000000    -5.861000000
C     1.687000000     1.468000000    -4.300000000
C     3.009000000     1.512000000    -3.711000000
H     3.803000000     0.824000000    -3.990000000
H     0.912000000     0.845000000    -6.209000000
C     1.675000000    -1.830000000    -4.333000000
H     2.749000000    -1.718000000    -4.464000000
C     1.230000000    -2.952000000    -3.703000000
C     2.132000000    -4.044000000    -3.129000000
H     3.015000000    -4.215000000    -3.748000000
H     1.603000000    -4.994000000    -3.228000000
C     2.626000000    -3.714000000    -1.752000000
C     3.648000000    -2.804000000    -1.478000000
H     4.261000000    -2.412000000    -2.286000000
C     1.870000000    -4.241000000    -0.726000000
C     2.189000000    -4.009000000     0.551000000
H     1.505000000    -4.439000000     1.278000000
C     3.178000000    -3.041000000     0.872000000
O     3.432000000    -2.768000000     2.153000000
C     2.865000000    -1.506000000     2.531000000
C     2.022000000    -1.518000000     3.791000000
C     1.611000000    -0.286000000     4.347000000
H     1.935000000     0.655000000     3.910000000
C     1.380000000    -2.663000000     4.210000000
H     1.578000000    -3.552000000     3.617000000
O     3.886000000    -0.441000000     2.569000000
H     2.235000000    -1.078000000     1.738000000
C     3.943000000    -2.502000000    -0.131000000
C     5.170000000    -1.676000000     0.171000000
H     6.002000000    -1.847000000    -0.515000000
H     5.574000000    -2.020000000     1.125000000
C     4.772000000    -0.234000000     0.248000000
C     4.921000000     0.564000000    -0.865000000
H     5.194000000     0.089000000    -1.804000000
C     4.242000000     0.270000000     1.424000000
C     4.063000000     1.603000000     1.538000000
H     3.543000000     1.927000000     2.436000000
C     4.218000000     2.447000000     0.391000000
O     3.595000000     3.633000000     0.429000000
C     2.222000000     3.782000000    -0.016000000
C     1.364000000     4.631000000     0.884000000
C     1.548000000     4.633000000     2.299000000
H     2.462000000     4.186000000     2.681000000
C     0.212000000     5.216000000     0.371000000
H    -0.024000000     5.324000000    -0.684000000
O     2.220000000     4.231000000    -1.366000000
H     1.775000000     2.784000000     0.098000000
C     4.601000000     1.904000000    -0.795000000
C     4.585000000     2.636000000    -2.091000000
H     5.451000000     2.386000000    -2.707000000
H     4.780000000     3.680000000    -1.839000000
C     3.220000000     2.478000000    -2.785000000
C     2.107000000     3.289000000    -2.378000000
C     0.840000000     3.271000000    -2.932000000
H     0.001000000     3.868000000    -2.585000000
C     0.701000000     2.364000000    -3.924000000
O    -0.514000000     2.161000000    -4.457000000
C    -1.392000000     1.170000000    -3.952000000
H    -0.900000000     0.867000000    -3.015000000
C    -2.766000000     1.671000000    -3.486000000
C    -3.689000000     0.773000000    -2.953000000
H    -3.386000000    -0.271000000    -2.981000000
C    -3.101000000     3.049000000    -3.455000000
H    -2.496000000     3.784000000    -3.980000000
C    -4.262000000     3.495000000    -2.857000000
O    -4.582000000     4.789000000    -2.803000000
C    -5.193000000     2.565000000    -2.324000000
H    -6.152000000     2.872000000    -1.914000000
C    -4.857000000     1.222000000    -2.377000000
O    -5.601000000     0.263000000    -1.673000000
C    -5.681000000    -1.042000000    -2.063000000
C    -5.343000000    -2.149000000    -1.155000000
H    -4.959000000    -2.022000000    -0.146000000
C    -6.273000000    -1.284000000    -3.283000000
H    -6.470000000    -0.463000000    -3.969000000
C    -6.487000000    -2.560000000    -3.706000000
H    -6.962000000    -2.621000000    -4.682000000
C    -6.175000000    -3.624000000    -2.929000000
H    -6.229000000    -4.644000000    -3.299000000
C    -5.646000000    -3.425000000    -1.619000000
O    -5.409000000    -4.536000000    -0.860000000
C    -4.159000000    -4.777000000    -0.342000000
C    -4.088000000    -5.190000000     0.964000000
H    -4.996000000    -5.396000000     1.524000000
C    -2.803000000    -5.360000000     1.512000000
O    -2.712000000    -5.915000000     2.759000000
C    -1.660000000    -5.932000000     3.534000000
C    -1.305000000    -4.840000000     4.332000000
H    -1.923000000    -3.946000000     4.308000000
C    -0.829000000    -7.052000000     3.578000000
H    -1.030000000    -7.937000000     2.978000000
C     0.398000000    -7.008000000     4.359000000
H     1.050000000    -7.862000000     4.192000000
C     0.668000000    -5.947000000     5.200000000
H     1.558000000    -5.889000000     5.822000000
C    -0.250000000    -4.913000000     5.188000000
O     0.045000000    -3.796000000     5.856000000
C     0.628000000    -2.650000000     5.391000000
C     0.345000000    -1.471000000     6.097000000
H    -0.398000000    -1.429000000     6.889000000
C     0.822000000    -0.280000000     5.528000000
O     0.440000000     0.886000000     6.135000000
C     1.242000000     1.982000000     6.104000000
C     0.818000000     3.019000000     5.335000000
H    -0.113000000     3.046000000     4.776000000
C     2.502000000     2.179000000     6.716000000
H     2.902000000     1.411000000     7.374000000
C     3.255000000     3.290000000     6.507000000
H     4.218000000     3.420000000     6.994000000
C     2.701000000     4.361000000     5.794000000
H     3.210000000     5.318000000     5.718000000
C     1.452000000     4.207000000     5.202000000
O     0.836000000     5.191000000     4.510000000
C     0.643000000     5.209000000     3.206000000
C    -0.549000000     5.770000000     2.630000000
H    -1.256000000     6.179000000     3.347000000
C    -0.714000000     5.754000000     1.254000000
O    -1.894000000     6.333000000     0.774000000
C    -2.305000000     6.514000000    -0.482000000
C    -1.951000000     7.578000000    -1.285000000
H    -1.294000000     8.398000000    -1.008000000
C    -2.425000000     7.633000000    -2.616000000
H    -2.327000000     8.591000000    -3.121000000
C    -3.356000000     6.719000000    -3.128000000
H    -3.580000000     6.788000000    -4.189000000
C    -3.777000000     5.750000000    -2.282000000
C    -3.314000000     5.611000000    -0.984000000
H    -3.538000000     4.702000000    -0.432000000
C    -1.726000000    -1.450000000     1.639000000
H    -2.098000000    -2.272000000     2.245000000
C    -0.465000000    -1.368000000     1.081000000
H     0.228000000    -2.127000000     1.435000000
C    -0.182000000    -0.425000000     0.102000000
H     0.753000000    -0.404000000    -0.436000000
C    -1.087000000     0.551000000    -0.191000000
H    -0.825000000     1.231000000    -0.998000000
C    -2.440000000     0.460000000     0.267000000
H    -3.279000000     1.093000000    -0.011000000
C    -2.690000000    -0.471000000     1.282000000
C    -4.023000000    -0.515000000     1.954000000
O    -4.774000000     0.408000000     1.856000000
O    -4.266000000    -1.311000000     2.846000000
O    -4.999000000    -5.736000000     5.693000000
H    -4.781000000    -4.896000000     5.290000000
H    -4.297000000    -6.324000000     5.417000000
O    -4.956000000     3.472000000     4.139000000
H    -4.253000000     3.209000000     4.732000000
H    -5.695000000     3.667000000     4.715000000
O    -8.514000000     3.143000000     2.182000000
H    -8.225000000     3.254000000     1.276000000
H    -8.034000000     2.376000000     2.495000000
O    -2.673000000     2.011000000     5.563000000
H    -3.325000000     1.366000000     5.289000000
H    -2.056000000     2.054000000     4.832000000
O    -6.994000000    -2.133000000     7.603000000
H    -6.493000000    -2.216000000     6.792000000
H    -7.748000000    -2.710000000     7.480000000
O    -5.753000000     1.461000000     6.253000000
H    -5.100000000     0.835000000     5.939000000
H    -6.200000000     1.003000000     6.965000000
O    -7.047000000     1.583000000     0.376000000
H    -6.477000000     2.259000000     0.742000000
H    -6.455000000     0.864000000     0.157000000
O    -3.307000000    -1.579000000     7.401000000
H    -3.530000000    -1.574000000     8.332000000
H    -3.202000000    -2.505000000     7.184000000
O    -4.970000000    -3.396000000     4.577000000
H    -4.466000000    -2.840000000     3.983000000
H    -5.881000000    -3.263000000     4.315000000
O    -6.830000000     0.753000000     3.410000000
H    -6.108000000     0.611000000     2.797000000
H    -6.452000000     1.294000000     4.103000000
O    -6.782000000    -2.187000000     2.047000000
H    -7.400000000    -1.619000000     2.507000000
H    -5.920000000    -1.871000000     2.317000000
O    -8.176000000    -1.670000000    -0.051000000
H    -7.530000000    -2.108000000     0.505000000
H    -8.810000000    -1.301000000     0.564000000
O    -7.438000000    -1.704000000     4.694000000
H    -8.392000000    -1.767000000     4.656000000
H    -7.239000000    -0.848000000     4.314000000
O    -7.238000000    -4.854000000     2.321000000
H    -7.333000000    -4.833000000     1.368000000
H    -7.209000000    -3.933000000     2.578000000
O    -1.886000000     2.844000000     2.784000000
H    -1.195000000     2.259000000     2.473000000
H    -2.549000000     2.821000000     2.093000000
O    -4.195000000    -0.384000000     5.251000000
H    -3.728000000    -1.035000000     5.775000000
H    -4.251000000    -0.774000000     4.378000000
O    -4.613000000     3.098000000     1.278000000
H    -4.772000000     3.531000000     2.117000000
H    -4.486000000     2.177000000     1.504000000
O    -9.284000000    -0.555000000     2.315000000
H    -9.996000000    -0.338000000     2.917000000
H    -8.659000000     0.163000000     2.415000000
O    -9.056000000     2.062000000    -1.468000000
H    -8.308000000     2.046000000    -0.871000000
H    -9.061000000     1.192000000    -1.868000000
