14
-79.37826
C    -1.969000000    -1.305000000     1.949000000
H    -2.044000000    -2.145000000     2.635000000
C    -0.743000000    -0.906000000     1.570000000
H     0.138000000    -1.393000000     1.980000000
C    -0.622000000     0.145000000     0.695000000
H     0.383000000     0.254000000     0.243000000
C    -1.750000000     0.771000000     0.157000000
H    -1.685000000     1.528000000    -0.621000000
C    -3.022000000     0.254000000     0.433000000
H    -3.858000000     0.781000000    -0.019000000
C    -3.144000000    -0.676000000     1.500000000
C    -4.467000000    -1.228000000     1.959000000
O    -5.480000000    -0.777000000     1.499000000
O    -4.465000000    -2.020000000     2.832000000
