14
-89.96865
C    -2.140000000    -0.105000000     0.957000000
H    -2.448000000    -1.044000000     1.410000000
C    -0.952000000    -0.151000000     0.235000000
H    -0.448000000    -1.101000000     0.077000000
C    -0.452000000     0.994000000    -0.363000000
H     0.409000000     0.910000000    -0.920000000
C    -1.224000000     2.152000000    -0.394000000
H    -0.825000000     2.996000000    -0.952000000
C    -2.425000000     2.158000000     0.272000000
H    -3.064000000     3.034000000     0.350000000
C    -2.922000000     1.017000000     0.885000000
C    -4.320000000     1.039000000     1.576000000
O    -5.065000000     1.945000000     1.283000000
O    -4.621000000     0.228000000     2.465000000
