14
-84.27892
C    -1.404000000    -1.144000000     1.556000000
H    -1.652000000    -1.980000000     2.206000000
C    -0.177000000    -1.151000000     0.982000000
H     0.525000000    -1.980000000     1.019000000
C     0.070000000    -0.271000000    -0.110000000
H     1.016000000    -0.315000000    -0.713000000
C    -0.835000000     0.698000000    -0.389000000
H    -0.606000000     1.480000000    -1.108000000
C    -2.035000000     0.765000000     0.344000000
H    -2.716000000     1.604000000     0.224000000
C    -2.343000000    -0.161000000     1.324000000
C    -3.630000000    -0.118000000     2.122000000
O    -4.611000000     0.489000000     1.652000000
O    -3.815000000    -0.866000000     3.051000000
