14
-88.74748
C    -1.223000000    -1.265000000     0.617000000
H    -1.404000000    -2.241000000     1.059000000
C     0.017000000    -0.951000000     0.071000000
H     0.770000000    -1.730000000     0.156000000
C     0.238000000     0.237000000    -0.529000000
H     1.196000000     0.476000000    -1.046000000
C    -0.707000000     1.231000000    -0.520000000
H    -0.552000000     2.173000000    -1.038000000
C    -1.945000000     0.989000000     0.119000000
H    -2.609000000     1.848000000     0.178000000
C    -2.204000000    -0.296000000     0.677000000
C    -3.479000000    -0.575000000     1.483000000
O    -4.333000000     0.284000000     1.647000000
O    -3.547000000    -1.610000000     2.108000000
