14
-85.71142
C    -1.597000000    -0.770000000     1.273000000
H    -2.177000000    -1.499000000     1.834000000
C    -0.305000000    -1.025000000     0.942000000
H     0.157000000    -1.963000000     1.241000000
C     0.350000000    -0.147000000     0.084000000
H     1.304000000    -0.460000000    -0.261000000
C    -0.337000000     0.954000000    -0.435000000
H     0.135000000     1.551000000    -1.211000000
C    -1.677000000     1.224000000    -0.046000000
H    -2.197000000     2.065000000    -0.497000000
C    -2.338000000     0.344000000     0.855000000
C    -3.793000000     0.601000000     1.186000000
O    -4.352000000     1.519000000     0.649000000
O    -4.343000000    -0.026000000     2.036000000
