14
-82.15529
C    -1.682000000    -0.930000000     0.854000000
H    -1.806000000    -1.970000000     1.146000000
C    -0.565000000    -0.427000000     0.177000000
H     0.284000000    -1.102000000     0.103000000
C    -0.501000000     0.887000000    -0.260000000
H     0.400000000     1.239000000    -0.733000000
C    -1.556000000     1.740000000     0.023000000
H    -1.604000000     2.776000000    -0.303000000
C    -2.695000000     1.327000000     0.659000000
H    -3.467000000     1.980000000     1.058000000
C    -2.804000000    -0.014000000     1.136000000
C    -4.010000000    -0.345000000     2.016000000
O    -4.849000000     0.440000000     2.379000000
O    -4.138000000    -1.494000000     2.476000000
