14
-85.81399
C    -1.993000000     0.733000000     0.327000000
H    -3.013000000     0.740000000     0.703000000
C    -1.074000000    -0.280000000     0.655000000
H    -1.311000000    -1.076000000     1.355000000
C     0.208000000    -0.107000000     0.209000000
H     0.936000000    -0.878000000     0.447000000
C     0.590000000     1.025000000    -0.532000000
H     1.627000000     1.130000000    -0.837000000
C    -0.297000000     2.047000000    -0.768000000
H     0.197000000     2.924000000    -1.178000000
C    -1.630000000     1.889000000    -0.393000000
C    -2.622000000     3.038000000    -0.552000000
O    -2.281000000     4.172000000    -0.783000000
O    -3.794000000     2.761000000    -0.561000000
