14
-86.41239
C    -2.123000000    -0.680000000     1.104000000
H    -2.893000000    -1.190000000     1.677000000
C    -0.873000000    -1.251000000     1.054000000
H    -0.667000000    -2.100000000     1.702000000
C     0.104000000    -0.668000000     0.237000000
H     1.136000000    -1.114000000     0.228000000
C    -0.196000000     0.492000000    -0.381000000
H     0.626000000     1.010000000    -0.868000000
C    -1.386000000     1.187000000    -0.269000000
H    -1.499000000     2.228000000    -0.560000000
C    -2.390000000     0.606000000     0.498000000
C    -3.749000000     1.271000000     0.618000000
O    -4.040000000     2.312000000     0.046000000
O    -4.533000000     0.715000000     1.344000000
