14
-84.39280
C    -1.881000000    -0.703000000     0.986000000
H    -2.345000000    -1.481000000     1.588000000
C    -0.584000000    -0.822000000     0.519000000
H     0.062000000    -1.689000000     0.631000000
C    -0.049000000     0.207000000    -0.281000000
H     0.911000000     0.012000000    -0.796000000
C    -0.725000000     1.411000000    -0.372000000
H    -0.235000000     2.260000000    -0.842000000
C    -1.970000000     1.623000000     0.182000000
H    -2.423000000     2.610000000     0.121000000
C    -2.566000000     0.547000000     0.792000000
C    -3.959000000     0.792000000     1.457000000
O    -4.583000000     1.846000000     1.336000000
O    -4.409000000    -0.004000000     2.218000000
