14
-81.37300
C    -2.459000000    -0.363000000     1.021000000
H    -3.038000000    -0.634000000     1.900000000
C    -1.294000000    -1.042000000     0.848000000
H    -1.043000000    -1.812000000     1.573000000
C    -0.306000000    -0.564000000     0.035000000
H     0.654000000    -1.029000000     0.109000000
C    -0.578000000     0.499000000    -0.847000000
H     0.213000000     0.734000000    -1.555000000
C    -1.812000000     1.214000000    -0.760000000
H    -1.991000000     2.030000000    -1.456000000
C    -2.664000000     0.804000000     0.256000000
C    -3.992000000     1.552000000     0.497000000
O    -4.167000000     2.738000000     0.265000000
O    -4.769000000     0.924000000     1.149000000
