14
-78.83353
C    -1.673000000    -0.867000000     1.130000000
H    -2.058000000    -1.843000000     1.414000000
C    -0.425000000    -0.798000000     0.474000000
H     0.216000000    -1.674000000     0.415000000
C     0.021000000     0.416000000    -0.111000000
H     0.899000000     0.431000000    -0.740000000
C    -0.785000000     1.521000000    -0.191000000
H    -0.423000000     2.459000000    -0.605000000
C    -2.047000000     1.468000000     0.462000000
H    -2.778000000     2.272000000     0.458000000
C    -2.473000000     0.308000000     1.163000000
C    -3.676000000     0.423000000     2.036000000
O    -4.094000000     1.523000000     2.278000000
O    -3.890000000    -0.451000000     2.899000000
