14
-90.72148
C    -1.669000000    -0.675000000     1.742000000
H    -2.172000000    -1.477000000     2.276000000
C    -0.479000000    -0.914000000     1.039000000
H     0.049000000    -1.859000000     1.140000000
C     0.137000000     0.139000000     0.295000000
H     1.062000000    -0.044000000    -0.268000000
C    -0.579000000     1.299000000     0.132000000
H    -0.099000000     2.068000000    -0.469000000
C    -1.806000000     1.502000000     0.785000000
H    -2.316000000     2.422000000     0.511000000
C    -2.414000000     0.518000000     1.513000000
C    -3.767000000     0.666000000     2.097000000
O    -4.440000000     1.698000000     1.785000000
O    -4.238000000    -0.194000000     2.808000000
