14
-84.32008
C    -2.639000000    -0.018000000     1.137000000
H    -3.235000000    -0.728000000     1.704000000
C    -1.406000000    -0.346000000     0.525000000
H    -0.988000000    -1.334000000     0.698000000
C    -0.579000000     0.608000000    -0.067000000
H     0.406000000     0.343000000    -0.512000000
C    -1.057000000     1.872000000    -0.145000000
H    -0.515000000     2.589000000    -0.756000000
C    -2.330000000     2.260000000     0.283000000
H    -2.773000000     3.231000000     0.073000000
C    -3.194000000     1.263000000     0.953000000
C    -4.603000000     1.633000000     1.393000000
O    -5.042000000     2.680000000     0.988000000
O    -5.366000000     0.881000000     2.018000000
