14
-90.43244
C    -1.686000000    -1.239000000     1.491000000
H    -1.924000000    -2.149000000     2.037000000
C    -0.357000000    -0.957000000     1.199000000
H     0.441000000    -1.628000000     1.506000000
C    -0.053000000     0.188000000     0.476000000
H     1.004000000     0.447000000     0.177000000
C    -1.117000000     1.022000000     0.078000000
H    -0.817000000     1.960000000    -0.382000000
C    -2.409000000     0.742000000     0.421000000
H    -3.177000000     1.463000000     0.153000000
C    -2.704000000    -0.368000000     1.179000000
C    -4.131000000    -0.576000000     1.694000000
O    -5.070000000     0.133000000     1.349000000
O    -4.338000000    -1.406000000     2.574000000
