14
-86.91211
C    -1.880000000    -1.200000000     1.707000000
H    -2.239000000    -1.786000000     2.550000000
C    -0.550000000    -1.352000000     1.313000000
H     0.149000000    -2.013000000     1.819000000
C    -0.022000000    -0.561000000     0.331000000
H     1.045000000    -0.805000000     0.086000000
C    -0.806000000     0.335000000    -0.350000000
H    -0.438000000     0.991000000    -1.135000000
C    -2.082000000     0.562000000     0.027000000
H    -2.747000000     1.259000000    -0.477000000
C    -2.722000000    -0.258000000     1.029000000
C    -4.127000000    -0.092000000     1.564000000
O    -4.623000000     0.954000000     1.192000000
O    -4.655000000    -0.873000000     2.340000000
