14
-88.48098
C    -2.819000000    -1.177000000     1.577000000
H    -3.182000000    -1.824000000     2.372000000
C    -1.447000000    -0.892000000     1.406000000
H    -0.659000000    -1.441000000     1.916000000
C    -1.088000000    -0.060000000     0.317000000
H    -0.039000000     0.225000000     0.181000000
C    -2.046000000     0.400000000    -0.560000000
H    -1.767000000     0.994000000    -1.427000000
C    -3.406000000     0.144000000    -0.341000000
H    -4.150000000     0.508000000    -1.045000000
C    -3.815000000    -0.680000000     0.693000000
C    -5.280000000    -0.989000000     0.968000000
O    -6.153000000    -0.689000000     0.146000000
O    -5.621000000    -1.378000000     2.037000000
