14
-81.31646
C    -1.631000000    -0.734000000     0.944000000
H    -1.805000000    -1.720000000     1.367000000
C    -0.482000000    -0.404000000     0.136000000
H     0.319000000    -1.130000000     0.017000000
C    -0.313000000     0.828000000    -0.429000000
H     0.501000000     1.051000000    -1.095000000
C    -1.304000000     1.758000000    -0.203000000
H    -1.155000000     2.710000000    -0.704000000
C    -2.360000000     1.504000000     0.649000000
H    -3.084000000     2.275000000     0.897000000
C    -2.561000000     0.219000000     1.185000000
C    -3.863000000    -0.029000000     2.016000000
O    -4.407000000     0.942000000     2.548000000
O    -3.972000000    -1.098000000     2.548000000
