14
-83.61095
C    -1.821000000    -0.195000000     0.179000000
H    -2.664000000    -0.644000000     0.698000000
C    -0.551000000    -0.652000000     0.356000000
H    -0.323000000    -1.493000000     1.006000000
C     0.485000000    -0.038000000    -0.305000000
H     1.400000000    -0.554000000    -0.274000000
C     0.378000000     1.102000000    -1.020000000
H     1.225000000     1.598000000    -1.486000000
C    -0.886000000     1.573000000    -1.205000000
H    -1.017000000     2.420000000    -1.873000000
C    -1.984000000     0.988000000    -0.577000000
C    -3.311000000     1.553000000    -0.874000000
O    -3.433000000     2.731000000    -1.329000000
O    -4.327000000     0.919000000    -0.722000000
