14
-89.66012
C    -1.732000000    -1.272000000     1.415000000
H    -1.903000000    -2.270000000     1.811000000
C    -0.518000000    -1.060000000     0.827000000
H     0.282000000    -1.791000000     0.740000000
C    -0.285000000     0.176000000     0.195000000
H     0.664000000     0.281000000    -0.352000000
C    -1.196000000     1.193000000     0.323000000
H    -1.097000000     2.108000000    -0.255000000
C    -2.346000000     0.991000000     1.086000000
H    -3.062000000     1.809000000     1.107000000
C    -2.705000000    -0.237000000     1.682000000
C    -3.961000000    -0.528000000     2.496000000
O    -4.769000000     0.369000000     2.560000000
O    -4.168000000    -1.647000000     2.995000000
