14
-89.44821
C    -1.750000000    -1.849000000     1.593000000
H    -1.779000000    -2.609000000     2.369000000
C    -0.553000000    -1.595000000     0.981000000
H     0.315000000    -2.226000000     1.151000000
C    -0.457000000    -0.627000000     0.015000000
H     0.533000000    -0.589000000    -0.561000000
C    -1.538000000     0.237000000    -0.163000000
H    -1.430000000     1.126000000    -0.780000000
C    -2.774000000     0.045000000     0.536000000
H    -3.689000000     0.587000000     0.313000000
C    -2.840000000    -1.020000000     1.450000000
C    -4.164000000    -1.237000000     2.237000000
O    -4.954000000    -0.330000000     2.463000000
O    -4.288000000    -2.360000000     2.726000000
