14
-77.15133
C    -1.076000000    -1.124000000     1.953000000
H    -1.202000000    -1.815000000     2.783000000
C     0.098000000    -1.175000000     1.155000000
H     0.816000000    -1.917000000     1.496000000
C     0.357000000    -0.272000000     0.161000000
H     1.272000000    -0.487000000    -0.461000000
C    -0.648000000     0.708000000    -0.078000000
H    -0.505000000     1.334000000    -0.955000000
C    -1.830000000     0.838000000     0.656000000
H    -2.525000000     1.637000000     0.412000000
C    -2.126000000    -0.128000000     1.633000000
C    -3.384000000     0.138000000     2.447000000
O    -4.043000000     1.102000000     2.295000000
O    -3.672000000    -0.664000000     3.296000000
