14
-91.61327
C    -0.745000000    -1.736000000     0.729000000
H    -0.358000000    -2.751000000     0.749000000
C    -0.026000000    -0.869000000    -0.083000000
H     0.820000000    -1.249000000    -0.651000000
C    -0.300000000     0.488000000    -0.117000000
H     0.391000000     1.134000000    -0.668000000
C    -1.449000000     0.968000000     0.558000000
H    -1.616000000     2.041000000     0.523000000
C    -2.204000000     0.130000000     1.374000000
H    -3.016000000     0.595000000     1.928000000
C    -1.818000000    -1.210000000     1.488000000
C    -2.622000000    -2.035000000     2.529000000
O    -3.833000000    -1.797000000     2.546000000
O    -2.105000000    -2.794000000     3.375000000
