14
-83.15522
C    -1.565000000    -0.880000000     1.687000000
H    -1.904000000    -1.867000000     1.993000000
C    -0.233000000    -0.760000000     1.192000000
H     0.374000000    -1.655000000     1.305000000
C     0.112000000     0.503000000     0.835000000
H     1.133000000     0.819000000     0.603000000
C    -0.784000000     1.561000000     0.949000000
H    -0.459000000     2.566000000     0.692000000
C    -2.059000000     1.410000000     1.437000000
H    -2.694000000     2.276000000     1.605000000
C    -2.496000000     0.149000000     1.765000000
C    -3.769000000    -0.097000000     2.525000000
O    -4.554000000     0.836000000     2.643000000
O    -3.966000000    -1.085000000     3.184000000
