14
-77.35380
C    -0.752000000    -1.212000000     2.337000000
H    -0.516000000    -2.002000000     3.045000000
C     0.012000000    -1.067000000     1.185000000
H     0.625000000    -1.923000000     0.912000000
C    -0.122000000     0.046000000     0.376000000
H     0.595000000     0.145000000    -0.466000000
C    -0.956000000     1.060000000     0.727000000
H    -1.180000000     1.796000000    -0.040000000
C    -1.603000000     1.053000000     2.010000000
H    -2.285000000     1.828000000     2.350000000
C    -1.620000000    -0.160000000     2.732000000
C    -2.497000000    -0.319000000     3.946000000
O    -3.441000000     0.392000000     4.113000000
O    -2.412000000    -1.277000000     4.663000000
