14
-87.67515
C    -1.505000000    -0.755000000     1.750000000
H    -1.480000000    -1.690000000     2.304000000
C    -0.448000000    -0.523000000     0.847000000
H     0.281000000    -1.316000000     0.700000000
C    -0.467000000     0.679000000     0.173000000
H     0.381000000     0.876000000    -0.530000000
C    -1.404000000     1.706000000     0.417000000
H    -1.259000000     2.692000000    -0.017000000
C    -2.459000000     1.406000000     1.315000000
H    -3.148000000     2.231000000     1.477000000
C    -2.540000000     0.193000000     2.003000000
C    -3.636000000    -0.017000000     3.060000000
O    -4.475000000     0.836000000     3.220000000
O    -3.576000000    -0.920000000     3.890000000
