14
-84.01468
C    -0.798000000    -1.326000000     1.993000000
H    -0.804000000    -2.021000000     2.829000000
C     0.228000000    -1.314000000     1.065000000
H     1.130000000    -1.893000000     1.245000000
C     0.190000000    -0.365000000     0.006000000
H     0.934000000    -0.290000000    -0.761000000
C    -0.832000000     0.555000000    -0.064000000
H    -0.830000000     1.382000000    -0.770000000
C    -1.873000000     0.582000000     0.911000000
H    -2.691000000     1.270000000     0.711000000
C    -1.895000000    -0.381000000     1.989000000
C    -2.984000000    -0.537000000     2.978000000
O    -3.644000000     0.407000000     3.374000000
O    -3.288000000    -1.637000000     3.469000000
