14
-81.89754
C    -0.405000000    -1.169000000     1.449000000
H    -0.075000000    -1.994000000     2.075000000
C     0.332000000    -0.952000000     0.290000000
H     0.989000000    -1.716000000    -0.119000000
C     0.020000000     0.196000000    -0.475000000
H     0.605000000     0.385000000    -1.412000000
C    -0.912000000     1.102000000     0.047000000
H    -1.099000000     1.977000000    -0.571000000
C    -1.537000000     0.950000000     1.290000000
H    -2.180000000     1.699000000     1.744000000
C    -1.315000000    -0.281000000     2.021000000
C    -1.909000000    -0.564000000     3.427000000
O    -2.621000000     0.247000000     3.934000000
O    -1.709000000    -1.575000000     4.091000000
