14
-91.48645
C    -0.778000000    -1.526000000     1.469000000
H    -0.809000000    -2.253000000     2.277000000
C     0.178000000    -1.601000000     0.495000000
H     0.893000000    -2.412000000     0.606000000
C     0.389000000    -0.600000000    -0.481000000
H     1.231000000    -0.567000000    -1.172000000
C    -0.532000000     0.485000000    -0.464000000
H    -0.435000000     1.321000000    -1.152000000
C    -1.608000000     0.532000000     0.478000000
H    -2.257000000     1.404000000     0.484000000
C    -1.661000000    -0.435000000     1.474000000
C    -2.750000000    -0.402000000     2.556000000
O    -3.671000000     0.373000000     2.460000000
O    -2.684000000    -1.167000000     3.545000000
