14
-79.12891
C    -1.649000000    -1.838000000     1.578000000
H    -2.040000000    -2.665000000     2.165000000
C    -0.619000000    -1.876000000     0.595000000
H     0.005000000    -2.745000000     0.398000000
C    -0.287000000    -0.700000000    -0.108000000
H     0.477000000    -0.686000000    -0.840000000
C    -0.991000000     0.436000000     0.096000000
H    -0.650000000     1.369000000    -0.344000000
C    -2.036000000     0.434000000     1.002000000
H    -2.525000000     1.404000000     1.051000000
C    -2.453000000    -0.664000000     1.777000000
C    -3.767000000    -0.556000000     2.567000000
O    -4.650000000     0.219000000     2.309000000
O    -3.871000000    -1.284000000     3.496000000
