14
-90.07454
C    -3.061000000     1.114000000    -0.467000000
H    -4.069000000     0.900000000    -0.120000000
C    -1.958000000     0.495000000     0.117000000
H    -2.214000000    -0.204000000     0.909000000
C    -0.644000000     0.810000000    -0.188000000
H     0.168000000     0.330000000     0.436000000
C    -0.358000000     1.637000000    -1.232000000
H     0.645000000     1.792000000    -1.621000000
C    -1.467000000     2.187000000    -1.932000000
H    -1.201000000     2.885000000    -2.721000000
C    -2.809000000     2.008000000    -1.517000000
C    -3.867000000     2.814000000    -2.183000000
O    -3.677000000     3.513000000    -3.189000000
O    -5.026000000     2.691000000    -1.750000000
