14
-84.92709
C    -1.821000000    -1.418000000     1.529000000
H    -2.112000000    -2.268000000     2.142000000
C    -0.499000000    -1.349000000     1.012000000
H     0.221000000    -2.156000000     1.119000000
C    -0.156000000    -0.331000000     0.214000000
H     0.838000000    -0.385000000    -0.317000000
C    -1.043000000     0.743000000     0.052000000
H    -0.572000000     1.598000000    -0.426000000
C    -2.321000000     0.730000000     0.504000000
H    -2.910000000     1.643000000     0.475000000
C    -2.772000000    -0.442000000     1.214000000
C    -4.107000000    -0.543000000     1.975000000
O    -4.825000000     0.422000000     1.949000000
O    -4.453000000    -1.560000000     2.595000000
