14
-90.18953
C    -1.151000000    -1.168000000     1.724000000
H    -0.560000000    -1.245000000     2.633000000
C    -0.559000000    -1.078000000     0.463000000
H     0.514000000    -0.951000000     0.346000000
C    -1.363000000    -1.160000000    -0.689000000
H    -0.948000000    -1.146000000    -1.722000000
C    -2.749000000    -1.201000000    -0.562000000
H    -3.286000000    -1.038000000    -1.493000000
C    -3.339000000    -1.241000000     0.729000000
H    -4.421000000    -1.296000000     0.808000000
C    -2.520000000    -1.209000000     1.848000000
C    -3.161000000    -1.295000000     3.260000000
O    -4.345000000    -1.262000000     3.281000000
O    -2.481000000    -1.289000000     4.284000000
