14
-86.70703
C    -1.729000000    -0.182000000     2.424000000
H    -1.563000000     0.083000000     3.465000000
C    -0.638000000    -0.037000000     1.570000000
H     0.322000000     0.374000000     1.873000000
C    -0.811000000    -0.352000000     0.227000000
H    -0.093000000    -0.036000000    -0.473000000
C    -2.011000000    -0.936000000    -0.198000000
H    -2.122000000    -1.189000000    -1.250000000
C    -2.975000000    -1.283000000     0.732000000
H    -3.751000000    -1.941000000     0.348000000
C    -2.958000000    -0.769000000     2.009000000
C    -4.114000000    -0.956000000     2.974000000
O    -5.173000000    -1.512000000     2.703000000
O    -4.016000000    -0.430000000     4.066000000
