14
-87.35254
C    -1.470000000    -0.852000000     1.901000000
H    -1.096000000    -0.479000000     2.852000000
C    -0.678000000    -0.774000000     0.711000000
H     0.363000000    -0.485000000     0.831000000
C    -1.264000000    -1.022000000    -0.534000000
H    -0.762000000    -1.006000000    -1.444000000
C    -2.631000000    -1.256000000    -0.609000000
H    -3.100000000    -1.381000000    -1.582000000
C    -3.431000000    -1.298000000     0.546000000
H    -4.475000000    -1.548000000     0.376000000
C    -2.908000000    -1.043000000     1.793000000
C    -3.806000000    -1.123000000     2.962000000
O    -4.947000000    -1.639000000     2.914000000
O    -3.341000000    -0.721000000     4.000000000
