14
-91.25261
C    -1.506000000    -0.597000000     2.567000000
H    -1.598000000    -0.472000000     3.643000000
C    -0.360000000    -0.042000000     1.915000000
H     0.308000000     0.553000000     2.532000000
C    -0.107000000    -0.299000000     0.554000000
H     0.830000000    -0.008000000     0.059000000
C    -1.053000000    -0.896000000    -0.193000000
H    -0.905000000    -0.929000000    -1.269000000
C    -2.200000000    -1.426000000     0.423000000
H    -2.973000000    -1.863000000    -0.204000000
C    -2.419000000    -1.326000000     1.810000000
C    -3.636000000    -1.873000000     2.576000000
O    -4.576000000    -2.317000000     1.918000000
O    -3.743000000    -1.673000000     3.797000000
