14
-89.73552
C    -0.385000000     0.430000000     2.391000000
H    -0.277000000     0.621000000     3.456000000
C     0.197000000     1.257000000     1.452000000
H     0.688000000     2.130000000     1.873000000
C     0.201000000     0.950000000     0.113000000
H     0.669000000     1.620000000    -0.617000000
C    -0.423000000    -0.240000000    -0.300000000
H    -0.342000000    -0.565000000    -1.334000000
C    -0.828000000    -1.158000000     0.664000000
H    -1.185000000    -2.132000000     0.338000000
C    -0.970000000    -0.783000000     1.987000000
C    -1.543000000    -1.779000000     2.974000000
O    -2.109000000    -2.786000000     2.574000000
O    -1.649000000    -1.448000000     4.163000000
