14
-82.70762
C    -0.844000000     0.188000000     2.563000000
H    -0.781000000     0.471000000     3.611000000
C    -0.243000000     0.969000000     1.550000000
H     0.192000000     1.953000000     1.705000000
C    -0.397000000     0.598000000     0.192000000
H     0.063000000     1.192000000    -0.546000000
C    -1.118000000    -0.566000000    -0.043000000
H    -1.338000000    -0.790000000    -1.084000000
C    -1.662000000    -1.385000000     0.976000000
H    -2.169000000    -2.300000000     0.682000000
C    -1.493000000    -1.019000000     2.339000000
C    -2.043000000    -1.807000000     3.516000000
O    -3.103000000    -2.368000000     3.287000000
O    -1.785000000    -1.531000000     4.673000000
