14
-83.86748
C    -0.671000000    -0.286000000     2.170000000
H    -0.403000000     0.084000000     3.157000000
C    -0.066000000     0.328000000     1.064000000
H     0.448000000     1.284000000     1.129000000
C    -0.222000000    -0.178000000    -0.218000000
H     0.357000000     0.239000000    -1.000000000
C    -1.018000000    -1.297000000    -0.440000000
H    -1.205000000    -1.743000000    -1.414000000
C    -1.721000000    -1.738000000     0.610000000
H    -2.461000000    -2.517000000     0.447000000
C    -1.468000000    -1.381000000     1.938000000
C    -2.370000000    -1.869000000     3.026000000
O    -3.191000000    -2.792000000     2.881000000
O    -2.118000000    -1.503000000     4.181000000
