14
-89.53174
C    -1.317000000    -0.167000000     2.598000000
H    -1.353000000     0.145000000     3.639000000
C    -0.633000000     0.725000000     1.735000000
H    -0.047000000     1.562000000     2.105000000
C    -0.697000000     0.441000000     0.361000000
H    -0.347000000     1.146000000    -0.357000000
C    -1.396000000    -0.663000000    -0.107000000
H    -1.510000000    -0.869000000    -1.168000000
C    -2.085000000    -1.503000000     0.741000000
H    -2.738000000    -2.282000000     0.356000000
C    -2.030000000    -1.260000000     2.152000000
C    -3.035000000    -1.907000000     3.130000000
O    -3.510000000    -2.988000000     2.756000000
O    -3.370000000    -1.434000000     4.197000000
