14
-80.23712
C    -0.511000000     0.071000000     2.510000000
H    -0.181000000     0.720000000     3.317000000
C    -0.017000000     0.345000000     1.195000000
H     0.649000000     1.192000000     1.055000000
C    -0.351000000    -0.553000000     0.190000000
H    -0.051000000    -0.291000000    -0.780000000
C    -1.218000000    -1.629000000     0.454000000
H    -1.505000000    -2.254000000    -0.387000000
C    -1.690000000    -1.822000000     1.751000000
H    -2.260000000    -2.710000000     2.012000000
C    -1.421000000    -0.916000000     2.748000000
C    -1.778000000    -1.255000000     4.158000000
O    -2.430000000    -2.258000000     4.403000000
O    -1.240000000    -0.796000000     5.201000000
