14
-84.25519
C     0.186000000     0.372000000     2.206000000
H     0.939000000     1.028000000     2.635000000
C     0.091000000     0.345000000     0.830000000
H     0.570000000     1.029000000     0.135000000
C    -0.657000000    -0.693000000     0.180000000
H    -0.695000000    -0.825000000    -0.930000000
C    -1.446000000    -1.556000000     0.959000000
H    -2.075000000    -2.323000000     0.516000000
C    -1.299000000    -1.475000000     2.346000000
H    -1.784000000    -2.250000000     2.934000000
C    -0.537000000    -0.541000000     2.943000000
C    -0.406000000    -0.593000000     4.481000000
O    -0.571000000    -1.677000000     5.020000000
O    -0.332000000     0.376000000     5.195000000
