14
-80.36357
C     0.406000000     0.883000000     0.788000000
H     1.099000000     1.577000000     1.258000000
C     0.595000000     0.616000000    -0.599000000
H     1.307000000     1.092000000    -1.268000000
C    -0.237000000    -0.302000000    -1.180000000
H    -0.022000000    -0.529000000    -2.231000000
C    -1.182000000    -1.029000000    -0.483000000
H    -1.739000000    -1.764000000    -1.059000000
C    -1.353000000    -0.739000000     0.927000000
H    -2.124000000    -1.264000000     1.485000000
C    -0.542000000     0.205000000     1.562000000
C    -0.721000000     0.467000000     3.034000000
O    -1.293000000    -0.349000000     3.732000000
O    -0.326000000     1.433000000     3.569000000
