14
-94.28105
C    -0.177000000    -0.788000000     3.083000000
H     0.533000000    -0.552000000     3.871000000
C    -0.099000000    -0.179000000     1.793000000
H     0.662000000     0.572000000     1.597000000
C    -1.004000000    -0.562000000     0.808000000
H    -0.957000000    -0.154000000    -0.220000000
C    -1.877000000    -1.604000000     1.061000000
H    -2.563000000    -1.897000000     0.270000000
C    -2.003000000    -2.177000000     2.356000000
H    -2.663000000    -3.012000000     2.576000000
C    -1.146000000    -1.704000000     3.354000000
C    -1.278000000    -2.355000000     4.714000000
O    -2.148000000    -3.228000000     4.943000000
O    -0.552000000    -1.927000000     5.627000000
