14
-89.01485
C    -1.505000000     1.101000000     0.748000000
H    -2.237000000     1.079000000     1.551000000
C    -0.734000000    -0.045000000     0.493000000
H    -0.972000000    -0.937000000     1.066000000
C     0.299000000     0.016000000    -0.496000000
H     0.873000000    -0.908000000    -0.811000000
C     0.490000000     1.181000000    -1.185000000
H     1.377000000     1.297000000    -1.804000000
C    -0.321000000     2.275000000    -0.974000000
H    -0.199000000     3.180000000    -1.564000000
C    -1.330000000     2.262000000    -0.057000000
C    -2.326000000     3.329000000     0.123000000
O    -2.503000000     4.255000000    -0.738000000
O    -3.059000000     3.301000000     1.105000000
