14
-85.27218
C    -0.331000000    -0.605000000     1.673000000
H     0.035000000    -1.264000000     2.457000000
C     0.559000000    -0.140000000     0.617000000
H     1.632000000    -0.316000000     0.646000000
C     0.083000000     0.428000000    -0.563000000
H     0.769000000     0.733000000    -1.378000000
C    -1.284000000     0.726000000    -0.654000000
H    -1.687000000     1.291000000    -1.491000000
C    -2.149000000     0.267000000     0.315000000
H    -3.186000000     0.586000000     0.249000000
C    -1.724000000    -0.408000000     1.504000000
C    -2.626000000    -0.923000000     2.601000000
O    -3.762000000    -0.573000000     2.758000000
O    -2.219000000    -2.005000000     3.144000000
