14
-84.80393
C    -1.910000000     1.299000000     1.135000000
H    -2.840000000     1.538000000     1.643000000
C    -1.432000000     0.000000000     1.280000000
H    -1.867000000    -0.750000000     1.935000000
C    -0.341000000    -0.390000000     0.457000000
H     0.178000000    -1.303000000     0.593000000
C     0.273000000     0.599000000    -0.292000000
H     1.196000000     0.317000000    -0.792000000
C    -0.116000000     1.940000000    -0.390000000
H     0.469000000     2.618000000    -1.006000000
C    -1.355000000     2.235000000     0.274000000
C    -2.223000000     3.450000000    -0.038000000
O    -1.880000000     4.226000000    -0.897000000
O    -3.347000000     3.618000000     0.486000000
