14
-85.62651
C    -0.561000000     0.296000000     2.608000000
H    -0.640000000     0.934000000     3.484000000
C    -0.496000000     0.912000000     1.334000000
H    -0.347000000     1.988000000     1.275000000
C    -0.773000000     0.125000000     0.175000000
H    -0.724000000     0.595000000    -0.798000000
C    -0.918000000    -1.286000000     0.315000000
H    -1.031000000    -1.905000000    -0.572000000
C    -0.936000000    -1.897000000     1.584000000
H    -1.082000000    -2.971000000     1.668000000
C    -0.863000000    -1.093000000     2.712000000
C    -1.292000000    -1.672000000     4.113000000
O    -1.725000000    -2.764000000     4.169000000
O    -1.248000000    -0.928000000     5.054000000
