14
-88.92154
C    -0.861000000     1.134000000     2.117000000
H    -1.362000000     1.603000000     2.960000000
C    -0.365000000     1.812000000     1.007000000
H    -0.444000000     2.896000000     0.998000000
C     0.192000000     1.099000000    -0.073000000
H     0.455000000     1.570000000    -1.017000000
C     0.276000000    -0.276000000    -0.023000000
H     0.654000000    -0.798000000    -0.899000000
C    -0.104000000    -0.988000000     1.125000000
H    -0.081000000    -2.073000000     1.182000000
C    -0.641000000    -0.274000000     2.246000000
C    -1.071000000    -0.969000000     3.531000000
O    -1.216000000    -2.184000000     3.502000000
O    -1.279000000    -0.332000000     4.496000000
