14
-77.50309
C    -0.890000000     0.480000000     2.859000000
H    -1.444000000     0.926000000     3.681000000
C    -0.694000000     1.274000000     1.720000000
H    -0.947000000     2.331000000     1.755000000
C    -0.261000000     0.718000000     0.570000000
H    -0.072000000     1.392000000    -0.355000000
C     0.038000000    -0.636000000     0.512000000
H     0.421000000    -1.092000000    -0.398000000
C    -0.216000000    -1.440000000     1.622000000
H    -0.067000000    -2.514000000     1.553000000
C    -0.763000000    -0.876000000     2.753000000
C    -1.304000000    -1.787000000     3.810000000
O    -1.651000000    -2.862000000     3.480000000
O    -1.650000000    -1.336000000     4.863000000
