14
-79.34883
C     0.004000000    -0.865000000     2.883000000
H     0.562000000    -0.475000000     3.730000000
C     0.211000000    -0.302000000     1.602000000
H     1.010000000     0.403000000     1.391000000
C    -0.494000000    -0.834000000     0.483000000
H    -0.312000000    -0.459000000    -0.503000000
C    -1.373000000    -1.921000000     0.728000000
H    -1.918000000    -2.370000000    -0.098000000
C    -1.523000000    -2.446000000     2.002000000
H    -2.422000000    -3.042000000     2.133000000
C    -0.853000000    -1.913000000     3.095000000
C    -1.311000000    -2.300000000     4.444000000
O    -1.794000000    -3.399000000     4.582000000
O    -1.139000000    -1.621000000     5.396000000
