14
-89.94506
C    -1.652000000     0.098000000     2.717000000
H    -2.039000000     0.848000000     3.402000000
C    -1.429000000     0.354000000     1.349000000
H    -1.656000000     1.328000000     0.921000000
C    -0.974000000    -0.635000000     0.492000000
H    -0.746000000    -0.386000000    -0.531000000
C    -0.676000000    -1.906000000     0.950000000
H    -0.418000000    -2.659000000     0.210000000
C    -0.836000000    -2.168000000     2.309000000
H    -0.673000000    -3.184000000     2.661000000
C    -1.320000000    -1.180000000     3.172000000
C    -1.549000000    -1.504000000     4.664000000
O    -1.312000000    -2.622000000     5.119000000
O    -1.920000000    -0.642000000     5.381000000
