14
-84.71241
C    -1.610000000     1.558000000     2.588000000
H    -1.679000000     2.484000000     3.154000000
C    -1.469000000     1.638000000     1.212000000
H    -1.570000000     2.598000000     0.712000000
C    -1.274000000     0.481000000     0.449000000
H    -1.160000000     0.611000000    -0.681000000
C    -1.066000000    -0.789000000     1.088000000
H    -0.877000000    -1.656000000     0.461000000
C    -1.171000000    -0.858000000     2.479000000
H    -1.060000000    -1.853000000     2.902000000
C    -1.464000000     0.335000000     3.257000000
C    -1.594000000     0.262000000     4.776000000
O    -1.013000000    -0.527000000     5.511000000
O    -2.353000000     1.028000000     5.366000000
