14
-87.30563
C    -0.854000000     0.993000000     1.928000000
H    -0.880000000     1.918000000     2.498000000
C    -0.743000000     1.074000000     0.572000000
H    -0.666000000     2.049000000     0.098000000
C    -0.742000000    -0.125000000    -0.181000000
H    -0.557000000     0.014000000    -1.236000000
C    -0.628000000    -1.348000000     0.428000000
H    -0.456000000    -2.270000000    -0.121000000
C    -0.839000000    -1.432000000     1.831000000
H    -0.814000000    -2.395000000     2.335000000
C    -0.923000000    -0.218000000     2.561000000
C    -1.212000000    -0.285000000     4.010000000
O    -1.296000000    -1.357000000     4.577000000
O    -1.649000000     0.751000000     4.607000000
