14
-78.45793
C    -1.095000000     0.802000000     2.153000000
H    -1.420000000     1.549000000     2.873000000
C    -0.617000000     1.224000000     0.907000000
H    -0.641000000     2.286000000     0.676000000
C    -0.268000000     0.220000000    -0.007000000
H     0.069000000     0.523000000    -0.990000000
C    -0.255000000    -1.155000000     0.325000000
H     0.122000000    -1.975000000    -0.281000000
C    -0.628000000    -1.479000000     1.618000000
H    -0.538000000    -2.502000000     1.975000000
C    -1.112000000    -0.558000000     2.524000000
C    -1.700000000    -0.963000000     3.836000000
O    -1.578000000    -2.049000000     4.288000000
O    -2.332000000    -0.218000000     4.542000000
