14
-82.88162
C    -0.783000000     1.745000000     2.246000000
H    -1.026000000     2.601000000     2.870000000
C    -0.640000000     1.825000000     0.927000000
H    -0.707000000     2.828000000     0.514000000
C    -0.319000000     0.746000000     0.079000000
H    -0.144000000     0.939000000    -0.972000000
C    -0.176000000    -0.574000000     0.610000000
H    -0.161000000    -1.424000000    -0.067000000
C    -0.274000000    -0.652000000     2.022000000
H    -0.135000000    -1.594000000     2.545000000
C    -0.578000000     0.489000000     2.856000000
C    -0.694000000     0.430000000     4.377000000
O    -0.604000000    -0.597000000     4.956000000
O    -0.997000000     1.464000000     5.033000000
