14
-85.30519
C    -0.191000000    -0.097000000     2.905000000
H    -0.105000000     0.710000000     3.628000000
C    -0.856000000    -0.027000000     1.646000000
H    -1.286000000     0.909000000     1.299000000
C    -1.120000000    -1.197000000     0.963000000
H    -1.478000000    -1.140000000    -0.017000000
C    -0.719000000    -2.427000000     1.418000000
H    -1.023000000    -3.320000000     0.878000000
C    -0.151000000    -2.481000000     2.640000000
H     0.033000000    -3.491000000     2.999000000
C     0.118000000    -1.388000000     3.405000000
C     0.584000000    -1.550000000     4.828000000
O     0.701000000    -2.645000000     5.359000000
O     0.889000000    -0.536000000     5.470000000
