14
-82.82012
C    -1.620000000     1.554000000     2.758000000
H    -2.107000000     2.496000000     3.000000000
C    -1.155000000     1.545000000     1.474000000
H    -1.359000000     2.329000000     0.748000000
C    -0.363000000     0.510000000     1.024000000
H    -0.112000000     0.547000000    -0.018000000
C    -0.102000000    -0.637000000     1.794000000
H     0.494000000    -1.491000000     1.482000000
C    -0.426000000    -0.523000000     3.149000000
H    -0.230000000    -1.341000000     3.837000000
C    -1.247000000     0.537000000     3.661000000
C    -1.598000000     0.637000000     5.148000000
O    -1.611000000    -0.278000000     5.924000000
O    -2.037000000     1.728000000     5.544000000
