14
-85.97539
C    -1.018000000    -0.238000000     2.893000000
H    -1.494000000     0.341000000     3.680000000
C    -1.125000000     0.257000000     1.602000000
H    -1.543000000     1.225000000     1.337000000
C    -0.728000000    -0.558000000     0.538000000
H    -0.810000000    -0.260000000    -0.525000000
C    -0.212000000    -1.815000000     0.742000000
H     0.033000000    -2.405000000    -0.138000000
C    -0.060000000    -2.307000000     1.995000000
H     0.323000000    -3.319000000     2.097000000
C    -0.461000000    -1.543000000     3.129000000
C    -0.508000000    -2.180000000     4.477000000
O    -0.220000000    -3.343000000     4.673000000
O    -0.881000000    -1.544000000     5.478000000
