14
-91.17804
C     0.160000000     0.793000000     2.649000000
H     0.053000000     1.789000000     3.069000000
C     0.287000000     0.728000000     1.272000000
H     0.304000000     1.594000000     0.616000000
C     0.227000000    -0.501000000     0.687000000
H     0.191000000    -0.504000000    -0.398000000
C     0.017000000    -1.635000000     1.406000000
H    -0.025000000    -2.607000000     0.921000000
C    -0.015000000    -1.551000000     2.796000000
H    -0.209000000    -2.476000000     3.332000000
C     0.091000000    -0.355000000     3.463000000
C     0.108000000    -0.247000000     4.992000000
O     0.273000000    -1.325000000     5.586000000
O    -0.014000000     0.825000000     5.534000000
