14
-90.72200
C     0.194000000     0.804000000     3.826000000
H     0.705000000     1.655000000     4.268000000
C     0.056000000     0.699000000     2.417000000
H     0.305000000     1.536000000     1.771000000
C    -0.589000000    -0.418000000     1.888000000
H    -0.637000000    -0.463000000     0.817000000
C    -1.150000000    -1.427000000     2.681000000
H    -1.699000000    -2.238000000     2.211000000
C    -0.943000000    -1.273000000     4.071000000
H    -1.340000000    -2.046000000     4.724000000
C    -0.337000000    -0.185000000     4.633000000
C    -0.157000000    -0.184000000     6.110000000
O    -0.418000000    -1.182000000     6.857000000
O     0.196000000     0.870000000     6.596000000
