14
-90.14493
C    -0.925000000    -1.555000000     1.463000000
H    -1.678000000    -2.333000000     1.557000000
C    -0.833000000    -0.732000000     0.342000000
H    -1.589000000    -0.800000000    -0.436000000
C     0.191000000     0.203000000     0.274000000
H     0.261000000     0.889000000    -0.584000000
C     1.235000000     0.147000000     1.225000000
H     2.113000000     0.756000000     1.025000000
C     1.111000000    -0.647000000     2.362000000
H     1.859000000    -0.654000000     3.151000000
C    -0.009000000    -1.432000000     2.511000000
C    -0.239000000    -2.302000000     3.744000000
O     0.246000000    -1.875000000     4.784000000
O    -0.940000000    -3.256000000     3.723000000
