14
-81.25637
C    -2.058000000     1.319000000     1.311000000
H    -2.725000000     1.315000000     2.169000000
C    -1.191000000     0.224000000     1.271000000
H    -1.273000000    -0.554000000     2.025000000
C    -0.214000000     0.101000000     0.288000000
H     0.491000000    -0.749000000     0.276000000
C    -0.247000000     1.070000000    -0.695000000
H     0.504000000     0.963000000    -1.474000000
C    -1.096000000     2.142000000    -0.708000000
H    -1.005000000     2.873000000    -1.508000000
C    -1.996000000     2.332000000     0.349000000
C    -2.952000000     3.468000000     0.285000000
O    -3.312000000     3.886000000    -0.788000000
O    -3.513000000     3.859000000     1.246000000
