14
-82.67660
C    -1.720000000    -0.893000000     0.818000000
H    -2.660000000    -1.284000000     1.201000000
C    -1.682000000    -0.469000000    -0.534000000
H    -2.509000000    -0.663000000    -1.212000000
C    -0.514000000     0.117000000    -1.040000000
H    -0.386000000     0.433000000    -2.069000000
C     0.562000000     0.308000000    -0.122000000
H     1.499000000     0.626000000    -0.573000000
C     0.548000000    -0.180000000     1.241000000
H     1.407000000    -0.051000000     1.894000000
C    -0.610000000    -0.791000000     1.695000000
C    -0.633000000    -1.411000000     3.022000000
O     0.155000000    -0.967000000     3.897000000
O    -1.635000000    -1.975000000     3.405000000
