14
-80.58993
C     0.086000000    -2.740000000     2.637000000
H    -0.229000000    -3.648000000     3.145000000
C    -0.335000000    -2.387000000     1.358000000
H    -0.841000000    -3.067000000     0.677000000
C     0.308000000    -1.264000000     0.793000000
H     0.060000000    -1.004000000    -0.289000000
C     1.211000000    -0.467000000     1.419000000
H     1.644000000     0.386000000     0.902000000
C     1.392000000    -0.763000000     2.775000000
H     1.950000000    -0.066000000     3.395000000
C     0.873000000    -1.892000000     3.414000000
C     1.046000000    -2.156000000     4.906000000
O     1.080000000    -1.242000000     5.676000000
O     0.946000000    -3.274000000     5.276000000
