14
-87.08268
C    -0.282000000    -2.189000000     2.151000000
H    -0.878000000    -3.020000000     2.519000000
C    -0.520000000    -1.860000000     0.794000000
H    -1.311000000    -2.367000000     0.248000000
C     0.208000000    -0.796000000     0.247000000
H    -0.122000000    -0.485000000    -0.746000000
C     1.176000000    -0.150000000     0.955000000
H     1.713000000     0.687000000     0.516000000
C     1.469000000    -0.549000000     2.286000000
H     2.270000000    -0.032000000     2.808000000
C     0.762000000    -1.659000000     2.821000000
C     1.039000000    -2.178000000     4.196000000
O     1.879000000    -1.591000000     4.895000000
O     0.453000000    -3.141000000     4.757000000
