14
-77.51978
C    -0.618000000    -2.378000000     1.315000000
H    -1.078000000    -3.310000000     1.633000000
C    -0.982000000    -1.762000000     0.139000000
H    -1.814000000    -2.092000000    -0.477000000
C    -0.374000000    -0.569000000    -0.263000000
H    -0.847000000    -0.116000000    -1.159000000
C     0.640000000     0.010000000     0.440000000
H     1.031000000     0.968000000     0.106000000
C     0.971000000    -0.555000000     1.674000000
H     1.521000000     0.087000000     2.358000000
C     0.387000000    -1.775000000     2.090000000
C     0.678000000    -2.372000000     3.457000000
O     1.128000000    -1.667000000     4.337000000
O     0.030000000    -3.317000000     3.860000000
