14
-90.19324
C    -1.109000000    -1.391000000     1.788000000
H    -1.815000000    -2.060000000     2.273000000
C    -1.256000000    -1.096000000     0.422000000
H    -2.031000000    -1.519000000    -0.214000000
C    -0.288000000    -0.249000000    -0.158000000
H    -0.287000000     0.064000000    -1.202000000
C     0.721000000     0.302000000     0.578000000
H     1.466000000     0.968000000     0.151000000
C     0.887000000    -0.030000000     1.944000000
H     1.694000000     0.372000000     2.551000000
C    -0.107000000    -0.804000000     2.580000000
C    -0.028000000    -0.966000000     4.114000000
O     0.964000000    -0.607000000     4.735000000
O    -0.950000000    -1.455000000     4.699000000
