14
-85.42159
C    -1.435000000    -1.575000000     0.976000000
H    -2.211000000    -2.315000000     1.154000000
C    -1.343000000    -1.062000000    -0.316000000
H    -2.048000000    -1.332000000    -1.098000000
C    -0.368000000    -0.184000000    -0.598000000
H    -0.326000000     0.220000000    -1.691000000
C     0.513000000     0.195000000     0.384000000
H     1.357000000     0.798000000     0.059000000
C     0.478000000    -0.294000000     1.726000000
H     1.297000000    -0.089000000     2.410000000
C    -0.492000000    -1.224000000     1.986000000
C    -0.654000000    -1.802000000     3.413000000
O     0.037000000    -1.436000000     4.368000000
O    -1.549000000    -2.611000000     3.635000000
