14
-91.56529
C    -1.198000000    -1.390000000     1.416000000
H    -1.962000000    -2.135000000     1.625000000
C    -1.101000000    -0.840000000     0.123000000
H    -1.732000000    -1.219000000    -0.677000000
C    -0.029000000     0.018000000    -0.236000000
H     0.037000000     0.344000000    -1.257000000
C     0.857000000     0.415000000     0.750000000
H     1.718000000     1.048000000     0.549000000
C     0.744000000    -0.092000000     2.047000000
H     1.548000000     0.138000000     2.741000000
C    -0.221000000    -1.036000000     2.404000000
C    -0.178000000    -1.675000000     3.796000000
O     0.567000000    -1.188000000     4.677000000
O    -0.641000000    -2.791000000     3.935000000
