14
-83.23255
C    -0.673000000    -2.034000000     1.473000000
H    -1.309000000    -2.847000000     1.812000000
C    -0.933000000    -1.499000000     0.173000000
H    -1.629000000    -1.983000000    -0.507000000
C    -0.172000000    -0.432000000    -0.302000000
H    -0.428000000     0.000000000    -1.257000000
C     0.851000000     0.080000000     0.487000000
H     1.396000000     0.935000000     0.095000000
C     1.070000000    -0.338000000     1.758000000
H     1.685000000     0.319000000     2.367000000
C     0.306000000    -1.398000000     2.273000000
C     0.497000000    -1.977000000     3.685000000
O     1.140000000    -1.347000000     4.514000000
O    -0.276000000    -2.812000000     4.111000000
