14
-85.42187
C    -1.835000000    -2.020000000     2.099000000
H    -2.734000000    -2.459000000     2.525000000
C    -1.861000000    -1.571000000     0.766000000
H    -2.722000000    -1.787000000     0.140000000
C    -0.818000000    -0.812000000     0.378000000
H    -0.944000000    -0.390000000    -0.614000000
C     0.184000000    -0.416000000     1.237000000
H     0.946000000     0.305000000     0.951000000
C     0.258000000    -0.921000000     2.550000000
H     1.078000000    -0.684000000     3.222000000
C    -0.776000000    -1.791000000     2.964000000
C    -0.928000000    -2.245000000     4.388000000
O    -0.073000000    -1.946000000     5.224000000
O    -1.944000000    -2.758000000     4.738000000
