14
-85.75106
C    -1.108000000    -1.634000000     1.763000000
H    -1.953000000    -2.181000000     2.171000000
C    -1.349000000    -0.799000000     0.685000000
H    -2.371000000    -0.795000000     0.315000000
C    -0.365000000    -0.038000000     0.171000000
H    -0.640000000     0.606000000    -0.742000000
C     0.868000000     0.056000000     0.781000000
H     1.638000000     0.699000000     0.361000000
C     1.137000000    -0.742000000     1.916000000
H     2.112000000    -0.733000000     2.397000000
C     0.185000000    -1.703000000     2.365000000
C     0.472000000    -2.362000000     3.690000000
O     1.583000000    -2.326000000     4.196000000
O    -0.492000000    -2.725000000     4.335000000
