14
-87.76141
C    -0.837000000    -1.419000000     2.540000000
H    -1.607000000    -2.106000000     2.881000000
C    -0.843000000    -0.944000000     1.218000000
H    -1.630000000    -1.274000000     0.545000000
C     0.163000000    -0.050000000     0.832000000
H     0.052000000     0.459000000    -0.157000000
C     1.211000000     0.216000000     1.688000000
H     1.941000000     0.965000000     1.393000000
C     1.253000000    -0.221000000     3.012000000
H     2.079000000     0.148000000     3.614000000
C     0.198000000    -1.075000000     3.435000000
C     0.163000000    -1.586000000     4.854000000
O     1.122000000    -1.397000000     5.523000000
O    -0.755000000    -2.300000000     5.195000000
