14
-82.37413
C    -0.982000000    -1.633000000     1.844000000
H    -1.700000000    -2.265000000     2.360000000
C    -1.248000000    -1.015000000     0.617000000
H    -2.249000000    -1.139000000     0.211000000
C    -0.374000000    -0.096000000     0.033000000
H    -0.622000000     0.220000000    -0.993000000
C     0.904000000     0.056000000     0.556000000
H     1.664000000     0.634000000     0.038000000
C     1.184000000    -0.627000000     1.739000000
H     2.164000000    -0.608000000     2.209000000
C     0.258000000    -1.352000000     2.415000000
C     0.534000000    -1.784000000     3.830000000
O     1.409000000    -1.246000000     4.442000000
O    -0.125000000    -2.621000000     4.364000000
