14
-81.27112
C    -1.071000000    -1.190000000     1.832000000
H    -1.675000000    -2.055000000     2.092000000
C    -0.868000000    -0.660000000     0.559000000
H    -1.469000000    -0.977000000    -0.289000000
C    -0.039000000     0.392000000     0.222000000
H     0.082000000     0.799000000    -0.732000000
C     0.688000000     0.991000000     1.233000000
H     1.249000000     1.906000000     1.066000000
C     0.648000000     0.408000000     2.534000000
H     1.216000000     0.924000000     3.305000000
C    -0.181000000    -0.704000000     2.794000000
C    -0.344000000    -1.192000000     4.202000000
O     0.279000000    -0.729000000     5.120000000
O    -1.136000000    -2.073000000     4.497000000
