14
-84.87426
C    -2.075000000     1.030000000     0.809000000
H    -2.982000000     1.169000000     1.392000000
C    -1.227000000    -0.050000000     1.096000000
H    -1.267000000    -0.673000000     1.986000000
C    -0.131000000    -0.310000000     0.245000000
H     0.449000000    -1.221000000     0.380000000
C     0.138000000     0.503000000    -0.807000000
H     0.964000000     0.290000000    -1.481000000
C    -0.683000000     1.564000000    -1.127000000
H    -0.504000000     2.277000000    -1.928000000
C    -1.803000000     1.823000000    -0.345000000
C    -2.733000000     2.988000000    -0.586000000
O    -2.634000000     3.720000000    -1.535000000
O    -3.547000000     3.329000000     0.255000000
