14
-84.51069
C    -1.185000000    -1.279000000     1.732000000
H    -1.898000000    -2.079000000     1.917000000
C    -1.032000000    -0.869000000     0.418000000
H    -1.633000000    -1.243000000    -0.407000000
C     0.004000000     0.001000000     0.082000000
H     0.219000000     0.329000000    -0.952000000
C     0.874000000     0.420000000     1.113000000
H     1.680000000     1.037000000     0.726000000
C     0.690000000     0.076000000     2.416000000
H     1.286000000     0.509000000     3.215000000
C    -0.239000000    -0.953000000     2.720000000
C    -0.302000000    -1.421000000     4.159000000
O     0.439000000    -0.952000000     4.979000000
O    -1.037000000    -2.327000000     4.497000000
