14
-78.87747
C    -1.106000000    -0.113000000     1.902000000
H    -2.062000000    -0.484000000     2.262000000
C    -0.594000000    -0.578000000     0.701000000
H    -1.123000000    -1.389000000     0.206000000
C     0.594000000    -0.006000000     0.227000000
H     0.953000000    -0.330000000    -0.775000000
C     1.229000000     1.020000000     0.939000000
H     2.153000000     1.364000000     0.482000000
C     0.632000000     1.547000000     2.056000000
H     1.141000000     2.308000000     2.642000000
C    -0.555000000     1.059000000     2.559000000
C    -1.175000000     1.736000000     3.744000000
O    -0.527000000     2.581000000     4.402000000
O    -2.062000000     1.134000000     4.187000000
