14
-73.45328
C    -1.411000000     0.403000000     2.022000000
H    -2.369000000     0.306000000     2.526000000
C    -1.218000000    -0.122000000     0.761000000
H    -1.946000000    -0.772000000     0.282000000
C    -0.078000000     0.125000000     0.046000000
H     0.216000000    -0.321000000    -0.939000000
C     0.914000000     0.948000000     0.676000000
H     1.776000000     1.305000000     0.118000000
C     0.680000000     1.456000000     1.989000000
H     1.437000000     2.053000000     2.492000000
C    -0.502000000     1.208000000     2.649000000
C    -0.742000000     1.706000000     4.024000000
O     0.066000000     1.498000000     4.892000000
O    -1.893000000     1.764000000     4.360000000
