14
-85.65394
C    -1.421000000    -0.670000000     2.318000000
H    -1.865000000    -1.543000000     2.788000000
C    -0.649000000    -0.788000000     1.144000000
H    -0.710000000    -1.726000000     0.598000000
C     0.059000000     0.275000000     0.632000000
H     0.597000000     0.183000000    -0.272000000
C    -0.066000000     1.510000000     1.237000000
H     0.447000000     2.416000000     0.924000000
C    -0.719000000     1.624000000     2.436000000
H    -0.654000000     2.560000000     2.985000000
C    -1.359000000     0.575000000     2.978000000
C    -2.069000000     0.739000000     4.344000000
O    -2.205000000     1.853000000     4.832000000
O    -2.418000000    -0.209000000     4.999000000
