14
-92.65648
C    -1.203000000     0.818000000     2.571000000
H    -2.019000000     0.539000000     3.233000000
C    -0.829000000     0.061000000     1.455000000
H    -1.379000000    -0.865000000     1.306000000
C     0.155000000     0.519000000     0.599000000
H     0.315000000    -0.042000000    -0.360000000
C     0.930000000     1.582000000     0.951000000
H     1.649000000     2.034000000     0.273000000
C     0.599000000     2.308000000     2.143000000
H     1.138000000     3.210000000     2.421000000
C    -0.528000000     1.975000000     2.940000000
C    -0.732000000     2.674000000     4.296000000
O    -0.125000000     3.762000000     4.419000000
O    -1.478000000     2.183000000     5.158000000
