14
-84.55216
C    -1.863000000     1.004000000     1.126000000
H    -2.697000000     1.081000000     1.818000000
C    -1.421000000    -0.299000000     0.987000000
H    -1.956000000    -1.076000000     1.527000000
C    -0.315000000    -0.556000000     0.222000000
H     0.150000000    -1.524000000     0.269000000
C     0.329000000     0.491000000    -0.397000000
H     1.164000000     0.258000000    -1.053000000
C    -0.150000000     1.814000000    -0.382000000
H     0.430000000     2.569000000    -0.906000000
C    -1.196000000     2.091000000     0.531000000
C    -1.710000000     3.441000000     0.757000000
O    -1.279000000     4.390000000     0.139000000
O    -2.757000000     3.614000000     1.422000000
