14
-83.79613
C    -0.118000000     0.176000000     2.068000000
H    -0.501000000    -0.489000000     2.838000000
C    -0.129000000    -0.226000000     0.697000000
H    -0.655000000    -1.164000000     0.539000000
C     0.380000000     0.663000000    -0.289000000
H     0.381000000     0.441000000    -1.385000000
C     0.861000000     1.908000000     0.176000000
H     1.234000000     2.705000000    -0.462000000
C     0.712000000     2.324000000     1.524000000
H     1.145000000     3.269000000     1.842000000
C     0.217000000     1.432000000     2.481000000
C     0.242000000     1.833000000     3.969000000
O     0.490000000     2.989000000     4.307000000
O     0.167000000     1.021000000     4.853000000
