14
-75.36538
C    -0.940000000     0.684000000     2.387000000
H    -1.371000000     0.149000000     3.229000000
C    -0.770000000     0.015000000     1.179000000
H    -1.146000000    -0.982000000     0.964000000
C     0.027000000     0.596000000     0.229000000
H     0.316000000     0.036000000    -0.666000000
C     0.557000000     1.877000000     0.511000000
H     1.082000000     2.403000000    -0.282000000
C     0.457000000     2.450000000     1.752000000
H     0.805000000     3.472000000     1.885000000
C    -0.304000000     1.893000000     2.744000000
C    -0.298000000     2.423000000     4.112000000
O    -0.076000000     3.614000000     4.334000000
O    -0.505000000     1.798000000     5.099000000
