14
-74.48413
C    -0.705000000     0.011000000     1.349000000
H    -1.428000000    -0.485000000     1.992000000
C    -0.364000000    -0.486000000     0.146000000
H    -0.822000000    -1.392000000    -0.245000000
C     0.567000000     0.086000000    -0.644000000
H     0.913000000    -0.379000000    -1.587000000
C     1.233000000     1.279000000    -0.245000000
H     2.000000000     1.723000000    -0.874000000
C     0.835000000     1.809000000     0.957000000
H     1.291000000     2.745000000     1.268000000
C    -0.066000000     1.193000000     1.815000000
C    -0.366000000     1.895000000     3.085000000
O     0.523000000     2.303000000     3.808000000
O    -1.400000000     1.678000000     3.662000000
