14
-81.94821
C    -0.929000000     0.897000000     2.368000000
H    -1.216000000     0.823000000     3.414000000
C    -1.276000000    -0.171000000     1.554000000
H    -1.852000000    -0.972000000     2.009000000
C    -0.854000000    -0.221000000     0.273000000
H    -1.032000000    -1.089000000    -0.307000000
C    -0.055000000     0.790000000    -0.285000000
H     0.329000000     0.794000000    -1.302000000
C     0.171000000     2.008000000     0.480000000
H     0.723000000     2.851000000     0.073000000
C    -0.193000000     2.007000000     1.815000000
C     0.246000000     3.107000000     2.710000000
O     1.016000000     3.947000000     2.330000000
O     0.003000000     3.077000000     3.898000000
