14
-88.06841
C    -1.161000000     0.683000000     2.222000000
H    -1.604000000     0.678000000     3.215000000
C    -0.961000000    -0.433000000     1.410000000
H    -1.358000000    -1.409000000     1.676000000
C    -0.334000000    -0.275000000     0.195000000
H    -0.360000000    -1.117000000    -0.459000000
C     0.243000000     0.930000000    -0.162000000
H     0.678000000     1.003000000    -1.155000000
C     0.020000000     2.026000000     0.644000000
H     0.302000000     3.025000000     0.321000000
C    -0.647000000     1.941000000     1.899000000
C    -0.779000000     3.140000000     2.892000000
O    -0.117000000     4.174000000     2.795000000
O    -1.408000000     2.960000000     3.929000000
