14
-90.23102
C    -0.365000000     0.323000000     2.154000000
H    -0.683000000     0.240000000     3.191000000
C    -0.577000000    -0.840000000     1.397000000
H    -0.862000000    -1.733000000     1.948000000
C    -0.291000000    -0.803000000     0.053000000
H    -0.497000000    -1.668000000    -0.538000000
C     0.110000000     0.366000000    -0.573000000
H     0.273000000     0.415000000    -1.647000000
C     0.447000000     1.513000000     0.182000000
H     0.778000000     2.483000000    -0.178000000
C     0.259000000     1.474000000     1.561000000
C     0.528000000     2.649000000     2.435000000
O     1.264000000     3.547000000     1.995000000
O     0.061000000     2.698000000     3.552000000
