14
-80.87280
C    -0.785000000     0.727000000     2.123000000
H    -1.204000000     0.719000000     3.126000000
C    -0.916000000    -0.440000000     1.358000000
H    -1.183000000    -1.381000000     1.832000000
C    -0.520000000    -0.352000000     0.069000000
H    -0.597000000    -1.310000000    -0.522000000
C     0.101000000     0.755000000    -0.484000000
H     0.519000000     0.746000000    -1.487000000
C     0.108000000     1.866000000     0.296000000
H     0.612000000     2.703000000    -0.181000000
C    -0.190000000     1.834000000     1.622000000
C     0.010000000     3.046000000     2.559000000
O     0.854000000     3.871000000     2.306000000
O    -0.475000000     3.005000000     3.718000000
