14
-83.81388
C    -1.066000000     1.328000000     2.476000000
H    -1.515000000     1.216000000     3.459000000
C    -0.890000000     0.245000000     1.592000000
H    -1.242000000    -0.767000000     1.778000000
C    -0.236000000     0.426000000     0.385000000
H    -0.136000000    -0.430000000    -0.302000000
C     0.351000000     1.665000000     0.161000000
H     1.005000000     1.812000000    -0.694000000
C     0.254000000     2.702000000     1.068000000
H     0.850000000     3.605000000     0.971000000
C    -0.573000000     2.578000000     2.171000000
C    -0.625000000     3.657000000     3.291000000
O     0.314000000     4.465000000     3.355000000
O    -1.346000000     3.620000000     4.242000000
