14
-91.48761
C    -0.840000000     0.936000000     1.931000000
H    -1.346000000     0.703000000     2.865000000
C    -0.670000000    -0.098000000     0.961000000
H    -0.948000000    -1.124000000     1.191000000
C    -0.160000000     0.165000000    -0.302000000
H    -0.134000000    -0.695000000    -0.992000000
C     0.302000000     1.456000000    -0.625000000
H     0.648000000     1.734000000    -1.618000000
C     0.140000000     2.445000000     0.335000000
H     0.327000000     3.472000000     0.033000000
C    -0.402000000     2.217000000     1.597000000
C    -0.632000000     3.357000000     2.523000000
O     0.111000000     4.331000000     2.466000000
O    -1.532000000     3.330000000     3.351000000
