14
-88.36387
C    -1.090000000     0.867000000     2.308000000
H    -1.579000000     0.802000000     3.277000000
C    -0.901000000    -0.324000000     1.583000000
H    -1.353000000    -1.242000000     1.950000000
C    -0.281000000    -0.354000000     0.268000000
H    -0.153000000    -1.341000000    -0.165000000
C     0.130000000     0.899000000    -0.240000000
H     0.498000000     0.888000000    -1.263000000
C     0.021000000     2.080000000     0.524000000
H     0.395000000     3.020000000     0.126000000
C    -0.578000000     2.100000000     1.784000000
C    -0.462000000     3.339000000     2.654000000
O     0.252000000     4.284000000     2.367000000
O    -1.009000000     3.344000000     3.767000000
