14
-88.63932
C     0.415000000     1.749000000     2.567000000
H     0.662000000     1.528000000     3.602000000
C     0.203000000     0.682000000     1.628000000
H     0.171000000    -0.367000000     1.910000000
C     0.102000000     0.915000000     0.278000000
H    -0.090000000     0.012000000    -0.339000000
C     0.041000000     2.217000000    -0.186000000
H    -0.234000000     2.484000000    -1.203000000
C     0.337000000     3.291000000     0.703000000
H     0.332000000     4.312000000     0.330000000
C     0.603000000     3.068000000     2.038000000
C     1.005000000     4.277000000     2.886000000
O     1.217000000     5.351000000     2.362000000
O     1.168000000     4.156000000     4.118000000
