14
-88.57209
C    -0.557000000    -0.448000000     1.397000000
H    -0.824000000    -1.309000000     2.004000000
C    -0.142000000    -0.724000000     0.113000000
H    -0.059000000    -1.735000000    -0.276000000
C     0.410000000     0.298000000    -0.653000000
H     0.871000000     0.044000000    -1.560000000
C     0.340000000     1.596000000    -0.161000000
H     0.789000000     2.331000000    -0.825000000
C    -0.299000000     1.887000000     0.997000000
H    -0.382000000     2.838000000     1.517000000
C    -0.674000000     0.825000000     1.858000000
C    -1.247000000     1.283000000     3.219000000
O    -1.299000000     2.473000000     3.525000000
O    -1.649000000     0.405000000     3.984000000
