14
-88.97832
C    -0.693000000     0.381000000     1.882000000
H    -0.912000000    -0.206000000     2.771000000
C    -0.238000000    -0.231000000     0.671000000
H    -0.047000000    -1.297000000     0.763000000
C     0.054000000     0.577000000    -0.407000000
H     0.403000000     0.089000000    -1.281000000
C    -0.289000000     1.936000000    -0.363000000
H     0.060000000     2.481000000    -1.236000000
C    -0.806000000     2.570000000     0.788000000
H    -1.016000000     3.634000000     0.708000000
C    -1.055000000     1.769000000     1.915000000
C    -1.673000000     2.368000000     3.177000000
O    -2.208000000     3.491000000     3.078000000
O    -1.415000000     1.911000000     4.309000000
