14
-77.06509
C    -0.208000000    -0.120000000     2.618000000
H    -0.143000000    -0.430000000     3.657000000
C     0.031000000    -1.025000000     1.587000000
H     0.334000000    -2.031000000     1.868000000
C     0.069000000    -0.536000000     0.241000000
H     0.422000000    -1.195000000    -0.518000000
C    -0.215000000     0.755000000    -0.060000000
H    -0.247000000     1.005000000    -1.118000000
C    -0.504000000     1.706000000     0.941000000
H    -0.720000000     2.760000000     0.783000000
C    -0.549000000     1.204000000     2.285000000
C    -0.931000000     2.165000000     3.430000000
O    -1.370000000     3.279000000     3.291000000
O    -0.556000000     1.968000000     4.561000000
