14
-84.35574
C    -0.498000000     0.253000000     2.885000000
H    -0.668000000    -0.266000000     3.825000000
C     0.120000000    -0.511000000     1.882000000
H     0.474000000    -1.509000000     2.128000000
C     0.282000000    -0.005000000     0.624000000
H     0.835000000    -0.679000000    -0.060000000
C    -0.241000000     1.249000000     0.267000000
H    -0.181000000     1.533000000    -0.781000000
C    -0.782000000     2.084000000     1.329000000
H    -1.122000000     3.104000000     1.168000000
C    -0.866000000     1.615000000     2.687000000
C    -1.547000000     2.452000000     3.700000000
O    -1.748000000     3.597000000     3.459000000
O    -1.785000000     1.975000000     4.821000000
