14
-79.25082
C    -1.634000000     0.583000000     2.949000000
H    -2.098000000     0.004000000     3.743000000
C    -1.016000000    -0.067000000     1.891000000
H    -0.764000000    -1.124000000     1.914000000
C    -0.504000000     0.603000000     0.738000000
H     0.079000000     0.133000000    -0.050000000
C    -0.780000000     1.931000000     0.609000000
H    -0.584000000     2.415000000    -0.344000000
C    -1.542000000     2.611000000     1.561000000
H    -1.908000000     3.621000000     1.395000000
C    -1.872000000     1.942000000     2.768000000
C    -2.638000000     2.718000000     3.857000000
O    -2.949000000     3.866000000     3.757000000
O    -2.905000000     2.229000000     4.935000000
