14
-84.87700
C    -0.373000000    -0.410000000     2.542000000
H    -0.427000000    -0.998000000     3.454000000
C     0.199000000    -0.969000000     1.419000000
H     0.513000000    -2.008000000     1.478000000
C     0.235000000    -0.297000000     0.195000000
H     0.582000000    -0.845000000    -0.715000000
C    -0.237000000     1.063000000     0.139000000
H    -0.204000000     1.607000000    -0.802000000
C    -0.672000000     1.697000000     1.312000000
H    -1.026000000     2.724000000     1.265000000
C    -0.673000000     0.982000000     2.558000000
C    -0.998000000     1.640000000     3.890000000
O    -1.228000000     2.825000000     3.968000000
O    -1.148000000     0.996000000     4.901000000
