14
-81.85678
C    -0.367000000     0.675000000     2.526000000
H    -0.436000000     0.233000000     3.517000000
C     0.091000000    -0.121000000     1.447000000
H     0.420000000    -1.150000000     1.562000000
C     0.176000000     0.335000000     0.159000000
H     0.394000000    -0.296000000    -0.661000000
C    -0.212000000     1.686000000    -0.016000000
H    -0.165000000     2.082000000    -1.027000000
C    -0.729000000     2.472000000     1.010000000
H    -1.028000000     3.489000000     0.769000000
C    -0.728000000     2.005000000     2.319000000
C    -1.337000000     2.872000000     3.406000000
O    -1.849000000     3.898000000     3.112000000
O    -1.237000000     2.639000000     4.588000000
