14
-87.84791
C    -0.722000000    -0.202000000     2.388000000
H    -0.763000000    -0.352000000     3.464000000
C    -0.114000000    -1.075000000     1.496000000
H     0.258000000    -2.031000000     1.855000000
C    -0.021000000    -0.714000000     0.126000000
H     0.485000000    -1.381000000    -0.623000000
C    -0.395000000     0.566000000    -0.276000000
H    -0.118000000     0.952000000    -1.254000000
C    -0.890000000     1.475000000     0.614000000
H    -1.196000000     2.472000000     0.306000000
C    -1.167000000     1.078000000     1.928000000
C    -1.634000000     2.086000000     2.929000000
O    -1.853000000     3.214000000     2.583000000
O    -1.855000000     1.723000000     4.068000000
