14
-78.64267
C    -0.593000000     0.042000000     2.552000000
H    -0.425000000    -0.489000000     3.485000000
C    -0.099000000    -0.471000000     1.347000000
H     0.465000000    -1.399000000     1.404000000
C    -0.414000000     0.145000000     0.168000000
H    -0.113000000    -0.254000000    -0.791000000
C    -1.155000000     1.306000000     0.203000000
H    -1.380000000     1.933000000    -0.656000000
C    -1.551000000     1.923000000     1.353000000
H    -2.170000000     2.817000000     1.340000000
C    -1.266000000     1.286000000     2.592000000
C    -1.699000000     1.869000000     3.909000000
O    -2.015000000     3.091000000     3.999000000
O    -1.341000000     1.361000000     4.906000000
