14
-87.87544
C    -1.909000000     0.056000000     0.333000000
H    -2.606000000    -0.721000000     0.635000000
C    -0.562000000    -0.266000000     0.250000000
H    -0.142000000    -1.232000000     0.520000000
C     0.272000000     0.752000000    -0.282000000
H     1.393000000     0.536000000    -0.450000000
C    -0.237000000     1.960000000    -0.771000000
H     0.482000000     2.696000000    -1.121000000
C    -1.622000000     2.161000000    -0.671000000
H    -2.059000000     3.125000000    -0.920000000
C    -2.481000000     1.234000000    -0.182000000
C    -3.946000000     1.607000000    -0.031000000
O    -4.303000000     2.648000000    -0.549000000
O    -4.567000000     1.037000000     0.881000000
