14
-85.28884
C    -1.919000000     0.018000000     2.298000000
H    -2.609000000    -0.321000000     3.067000000
C    -1.011000000    -0.895000000     1.806000000
H    -0.881000000    -1.893000000     2.218000000
C    -0.234000000    -0.564000000     0.695000000
H     0.374000000    -1.361000000     0.191000000
C    -0.209000000     0.738000000     0.154000000
H     0.345000000     0.894000000    -0.769000000
C    -1.062000000     1.631000000     0.754000000
H    -1.029000000     2.634000000     0.336000000
C    -1.988000000     1.304000000     1.746000000
C    -2.940000000     2.283000000     2.380000000
O    -2.965000000     3.426000000     1.935000000
O    -3.691000000     2.000000000     3.256000000
