14
-88.01990
C    -1.067000000     0.247000000     2.246000000
H    -1.007000000     0.056000000     3.314000000
C    -0.087000000    -0.364000000     1.392000000
H     0.595000000    -1.103000000     1.804000000
C    -0.050000000    -0.074000000     0.033000000
H     0.667000000    -0.594000000    -0.660000000
C    -0.846000000     0.980000000    -0.415000000
H    -0.756000000     1.327000000    -1.442000000
C    -1.774000000     1.605000000     0.417000000
H    -2.441000000     2.291000000    -0.099000000
C    -1.922000000     1.245000000     1.743000000
C    -2.789000000     2.070000000     2.654000000
O    -3.291000000     3.102000000     2.201000000
O    -2.796000000     1.923000000     3.876000000
