14
-87.38867
C    -1.158000000    -0.571000000     2.056000000
H    -1.412000000    -1.333000000     2.788000000
C    -0.110000000    -0.685000000     1.176000000
H     0.559000000    -1.525000000     1.348000000
C     0.066000000     0.260000000     0.200000000
H     0.951000000     0.227000000    -0.503000000
C    -0.815000000     1.367000000     0.083000000
H    -0.597000000     2.249000000    -0.513000000
C    -1.832000000     1.517000000     1.071000000
H    -2.412000000     2.437000000     1.060000000
C    -1.987000000     0.525000000     2.077000000
C    -3.038000000     0.734000000     3.126000000
O    -3.474000000     1.869000000     3.313000000
O    -3.286000000    -0.136000000     4.000000000
