14
-84.26934
C    -0.046000000    -0.660000000     1.551000000
H     0.390000000    -1.298000000     2.316000000
C     0.457000000    -0.747000000     0.243000000
H     1.272000000    -1.439000000     0.049000000
C    -0.024000000     0.074000000    -0.779000000
H     0.425000000    -0.093000000    -1.760000000
C    -0.966000000     1.016000000    -0.526000000
H    -1.270000000     1.749000000    -1.269000000
C    -1.552000000     1.071000000     0.742000000
H    -2.425000000     1.685000000     0.948000000
C    -1.125000000     0.159000000     1.791000000
C    -1.744000000     0.127000000     3.124000000
O    -2.689000000     0.895000000     3.414000000
O    -1.476000000    -0.656000000     4.019000000
