14
-77.96693
C    -0.215000000    -1.216000000     3.070000000
H     0.254000000    -1.437000000     4.026000000
C     0.446000000    -1.262000000     1.796000000
H     1.462000000    -1.636000000     1.705000000
C    -0.269000000    -0.785000000     0.699000000
H     0.180000000    -0.771000000    -0.376000000
C    -1.552000000    -0.243000000     0.852000000
H    -2.065000000     0.181000000    -0.008000000
C    -2.181000000    -0.271000000     2.083000000
H    -3.212000000     0.068000000     2.150000000
C    -1.523000000    -0.732000000     3.239000000
C    -2.194000000    -0.617000000     4.578000000
O    -3.328000000    -0.202000000     4.714000000
O    -1.653000000    -0.812000000     5.615000000
