14
-86.64556
C    -1.015000000    -0.467000000     2.708000000
H    -0.857000000    -1.001000000     3.642000000
C    -0.201000000    -0.632000000     1.563000000
H     0.622000000    -1.342000000     1.562000000
C    -0.529000000     0.132000000     0.448000000
H     0.093000000     0.024000000    -0.347000000
C    -1.569000000     1.028000000     0.431000000
H    -1.690000000     1.599000000    -0.486000000
C    -2.363000000     1.226000000     1.562000000
H    -3.182000000     1.940000000     1.558000000
C    -2.051000000     0.459000000     2.709000000
C    -2.784000000     0.749000000     4.046000000
O    -3.916000000     1.243000000     4.104000000
O    -2.143000000     0.775000000     5.096000000
