14
-91.09993
C     0.003000000    -0.010000000     2.535000000
H     0.223000000    -0.350000000     3.544000000
C     0.854000000    -0.387000000     1.493000000
H     1.720000000    -1.036000000     1.599000000
C     0.603000000     0.083000000     0.230000000
H     1.225000000    -0.349000000    -0.608000000
C    -0.540000000     0.867000000     0.009000000
H    -0.745000000     1.140000000    -1.023000000
C    -1.452000000     1.175000000     0.985000000
H    -2.311000000     1.790000000     0.732000000
C    -1.174000000     0.734000000     2.284000000
C    -2.107000000     1.127000000     3.433000000
O    -3.153000000     1.731000000     3.303000000
O    -1.681000000     0.847000000     4.575000000
