14
-79.38897
C    -1.123000000    -0.934000000     2.477000000
H    -1.310000000    -1.366000000     3.457000000
C    -0.100000000    -1.211000000     1.666000000
H     0.705000000    -1.874000000     1.975000000
C     0.061000000    -0.530000000     0.456000000
H     0.923000000    -0.762000000    -0.140000000
C    -0.878000000     0.390000000     0.042000000
H    -0.742000000     0.890000000    -0.914000000
C    -1.951000000     0.672000000     0.853000000
H    -2.665000000     1.376000000     0.433000000
C    -2.094000000     0.027000000     2.076000000
C    -3.287000000     0.401000000     2.864000000
O    -3.513000000     1.594000000     2.842000000
O    -3.640000000    -0.255000000     3.823000000
