14
-89.26051
C    -2.879000000     0.137000000     0.806000000
H    -3.787000000    -0.362000000     1.135000000
C    -1.633000000    -0.537000000     0.890000000
H    -1.620000000    -1.522000000     1.349000000
C    -0.532000000     0.008000000     0.225000000
H     0.421000000    -0.586000000     0.164000000
C    -0.586000000     1.268000000    -0.379000000
H     0.336000000     1.723000000    -0.732000000
C    -1.792000000     1.995000000    -0.365000000
H    -1.785000000     2.997000000    -0.787000000
C    -2.940000000     1.430000000     0.227000000
C    -4.200000000     2.270000000     0.357000000
O    -4.236000000     3.405000000    -0.108000000
O    -5.202000000     1.878000000     0.916000000
