14
-86.07876
C    -1.311000000    -0.354000000     2.452000000
H    -1.114000000    -0.867000000     3.390000000
C    -0.551000000    -0.805000000     1.418000000
H     0.037000000    -1.717000000     1.476000000
C    -0.392000000     0.021000000     0.292000000
H     0.225000000    -0.392000000    -0.493000000
C    -1.034000000     1.237000000     0.173000000
H    -0.867000000     1.848000000    -0.711000000
C    -1.794000000     1.681000000     1.271000000
H    -2.163000000     2.704000000     1.283000000
C    -1.877000000     0.896000000     2.416000000
C    -2.455000000     1.474000000     3.689000000
O    -2.811000000     2.637000000     3.687000000
O    -2.563000000     0.778000000     4.655000000
