14
-92.36602
C    -0.502000000    -0.550000000     2.198000000
H    -0.106000000    -1.116000000     3.037000000
C     0.276000000    -0.537000000     1.044000000
H     1.269000000    -0.968000000     0.944000000
C    -0.285000000    -0.003000000    -0.111000000
H     0.288000000     0.080000000    -1.058000000
C    -1.540000000     0.597000000    -0.101000000
H    -1.777000000     1.133000000    -1.016000000
C    -2.353000000     0.525000000     1.051000000
H    -3.381000000     0.877000000     1.077000000
C    -1.812000000     0.023000000     2.248000000
C    -2.621000000    -0.097000000     3.536000000
O    -3.835000000     0.049000000     3.505000000
O    -1.988000000    -0.243000000     4.579000000
