14
-86.38656
C    -0.288000000     0.082000000     2.661000000
H    -0.073000000    -0.298000000     3.656000000
C     0.663000000    -0.147000000     1.597000000
H     1.626000000    -0.632000000     1.732000000
C     0.419000000     0.365000000     0.335000000
H     1.152000000     0.077000000    -0.434000000
C    -0.703000000     1.109000000     0.113000000
H    -0.839000000     1.434000000    -0.915000000
C    -1.711000000     1.176000000     1.115000000
H    -2.638000000     1.670000000     0.835000000
C    -1.505000000     0.682000000     2.413000000
C    -2.497000000     0.923000000     3.620000000
O    -3.581000000     1.442000000     3.395000000
O    -2.072000000     0.883000000     4.783000000
