14
-88.66228
C    -0.099000000    -0.178000000     2.112000000
H     0.303000000    -0.606000000     3.027000000
C     0.567000000    -0.440000000     0.924000000
H     1.501000000    -0.995000000     0.957000000
C     0.074000000     0.135000000    -0.264000000
H     0.638000000     0.049000000    -1.132000000
C    -1.040000000     0.924000000    -0.186000000
H    -1.364000000     1.409000000    -1.104000000
C    -1.693000000     1.175000000     0.951000000
H    -2.562000000     1.821000000     1.051000000
C    -1.229000000     0.676000000     2.139000000
C    -1.841000000     0.946000000     3.510000000
O    -3.044000000     1.319000000     3.573000000
O    -1.015000000     1.111000000     4.421000000
