14
-79.75876
C    -2.110000000     0.742000000     2.535000000
H    -2.480000000     0.506000000     3.529000000
C    -1.517000000    -0.267000000     1.720000000
H    -1.521000000    -1.273000000     2.132000000
C    -0.978000000     0.014000000     0.490000000
H    -0.582000000    -0.715000000    -0.096000000
C    -1.110000000     1.310000000     0.053000000
H    -0.743000000     1.510000000    -0.950000000
C    -1.806000000     2.332000000     0.779000000
H    -1.730000000     3.331000000     0.358000000
C    -2.308000000     2.042000000     2.052000000
C    -2.738000000     3.125000000     2.990000000
O    -2.446000000     4.216000000     2.715000000
O    -3.331000000     2.895000000     4.050000000
