14
-91.96671
C    -2.207000000     0.177000000     2.039000000
H    -2.515000000    -0.565000000     2.771000000
C    -1.550000000    -0.337000000     0.905000000
H    -1.369000000    -1.395000000     0.736000000
C    -1.090000000     0.563000000    -0.085000000
H    -0.669000000     0.181000000    -1.034000000
C    -1.238000000     1.934000000     0.084000000
H    -0.824000000     2.645000000    -0.627000000
C    -1.932000000     2.406000000     1.231000000
H    -2.028000000     3.471000000     1.428000000
C    -2.433000000     1.563000000     2.189000000
C    -3.148000000     1.977000000     3.474000000
O    -3.433000000     3.165000000     3.649000000
O    -3.440000000     1.183000000     4.356000000
