14
-90.27774
C    -0.441000000    -0.568000000     2.373000000
H     0.045000000    -0.834000000     3.308000000
C     0.369000000    -0.791000000     1.237000000
H     1.397000000    -1.141000000     1.297000000
C    -0.093000000    -0.458000000    -0.037000000
H     0.498000000    -0.499000000    -0.938000000
C    -1.321000000     0.198000000    -0.136000000
H    -1.759000000     0.634000000    -1.030000000
C    -2.175000000     0.326000000     0.996000000
H    -3.227000000     0.596000000     0.954000000
C    -1.715000000    -0.066000000     2.260000000
C    -2.625000000     0.125000000     3.497000000
O    -3.607000000     0.821000000     3.437000000
O    -2.305000000    -0.437000000     4.569000000
