14
-87.43948
C    -2.208000000     0.655000000    -0.057000000
H    -3.174000000     0.165000000     0.035000000
C    -1.013000000    -0.041000000    -0.004000000
H    -1.022000000    -1.109000000     0.202000000
C     0.184000000     0.586000000    -0.247000000
H     1.067000000    -0.049000000    -0.186000000
C     0.212000000     1.930000000    -0.565000000
H     1.195000000     2.384000000    -0.663000000
C    -1.022000000     2.648000000    -0.451000000
H    -0.936000000     3.724000000    -0.577000000
C    -2.280000000     2.070000000    -0.223000000
C    -3.563000000     2.845000000    -0.023000000
O    -3.465000000     4.047000000     0.153000000
O    -4.551000000     2.202000000    -0.083000000
