14
-86.52094
C    -1.755000000     1.260000000     1.533000000
H    -2.600000000     0.974000000     2.154000000
C    -1.089000000     0.240000000     0.819000000
H    -1.425000000    -0.793000000     0.848000000
C     0.108000000     0.613000000     0.135000000
H     0.600000000    -0.175000000    -0.462000000
C     0.604000000     1.917000000     0.272000000
H     1.608000000     2.089000000    -0.107000000
C    -0.055000000     2.914000000     0.936000000
H     0.304000000     3.939000000     0.891000000
C    -1.318000000     2.594000000     1.583000000
C    -2.119000000     3.623000000     2.380000000
O    -1.730000000     4.786000000     2.429000000
O    -3.287000000     3.372000000     2.619000000
