14
-80.31714
C    -0.132000000    -1.103000000     1.435000000
H     0.389000000    -1.744000000     2.143000000
C     0.656000000    -0.541000000     0.444000000
H     1.743000000    -0.513000000     0.440000000
C     0.055000000     0.190000000    -0.599000000
H     0.679000000     0.714000000    -1.370000000
C    -1.242000000     0.476000000    -0.458000000
H    -1.718000000     1.037000000    -1.259000000
C    -2.060000000    -0.076000000     0.531000000
H    -3.085000000     0.266000000     0.652000000
C    -1.491000000    -0.843000000     1.528000000
C    -2.351000000    -1.395000000     2.618000000
O    -3.380000000    -0.853000000     2.960000000
O    -2.173000000    -2.514000000     3.060000000
