14
-90.96580
C    -2.142000000     0.839000000     1.694000000
H    -3.036000000     0.796000000     2.311000000
C    -1.703000000    -0.257000000     0.922000000
H    -2.269000000    -1.178000000     1.029000000
C    -0.616000000    -0.053000000     0.056000000
H    -0.207000000    -0.870000000    -0.485000000
C     0.038000000     1.175000000     0.065000000
H     0.941000000     1.274000000    -0.531000000
C    -0.391000000     2.259000000     0.830000000
H     0.296000000     3.101000000     0.855000000
C    -1.525000000     2.103000000     1.643000000
C    -2.033000000     3.213000000     2.626000000
O    -1.494000000     4.269000000     2.616000000
O    -3.091000000     2.931000000     3.313000000
