14
-88.29403
C    -2.150000000     0.091000000     2.391000000
H    -3.003000000    -0.238000000     2.979000000
C    -1.456000000    -0.784000000     1.582000000
H    -1.593000000    -1.862000000     1.617000000
C    -0.508000000    -0.274000000     0.730000000
H     0.107000000    -0.930000000     0.203000000
C    -0.250000000     1.088000000     0.703000000
H     0.575000000     1.456000000     0.098000000
C    -0.967000000     1.913000000     1.534000000
H    -0.800000000     2.987000000     1.537000000
C    -1.922000000     1.500000000     2.379000000
C    -2.742000000     2.410000000     3.217000000
O    -2.465000000     3.589000000     3.208000000
O    -3.661000000     1.960000000     3.898000000
