14
-83.93638
C    -1.979000000     0.145000000     1.344000000
H    -2.816000000    -0.500000000     1.599000000
C    -0.944000000    -0.252000000     0.465000000
H    -1.037000000    -1.213000000    -0.034000000
C     0.119000000     0.651000000     0.232000000
H     0.912000000     0.323000000    -0.411000000
C     0.114000000     1.912000000     0.692000000
H     0.937000000     2.610000000     0.558000000
C    -0.933000000     2.293000000     1.524000000
H    -0.981000000     3.344000000     1.800000000
C    -1.991000000     1.455000000     1.812000000
C    -2.967000000     1.991000000     2.802000000
O    -3.044000000     3.164000000     3.131000000
O    -3.738000000     1.245000000     3.392000000
