14
-77.58743
C    -1.572000000     0.003000000     2.282000000
H    -2.208000000    -0.260000000     3.123000000
C    -1.318000000    -0.991000000     1.366000000
H    -1.611000000    -2.024000000     1.530000000
C    -0.670000000    -0.646000000     0.191000000
H    -0.397000000    -1.354000000    -0.578000000
C    -0.009000000     0.589000000     0.095000000
H     0.568000000     0.852000000    -0.788000000
C    -0.192000000     1.548000000     1.093000000
H     0.276000000     2.527000000     1.031000000
C    -1.078000000     1.283000000     2.212000000
C    -1.212000000     2.242000000     3.383000000
O    -0.715000000     3.291000000     3.317000000
O    -1.704000000     1.834000000     4.375000000
