14
-88.63131
C    -2.810000000     0.486000000     2.709000000
H    -3.279000000     0.270000000     3.665000000
C    -2.480000000    -0.553000000     1.860000000
H    -2.849000000    -1.565000000     2.004000000
C    -1.645000000    -0.371000000     0.722000000
H    -1.357000000    -1.156000000     0.088000000
C    -1.184000000     0.941000000     0.480000000
H    -0.556000000     1.080000000    -0.396000000
C    -1.521000000     2.008000000     1.319000000
H    -1.187000000     3.024000000     1.122000000
C    -2.325000000     1.805000000     2.461000000
C    -2.476000000     2.879000000     3.459000000
O    -1.589000000     3.718000000     3.478000000
O    -3.231000000     2.743000000     4.412000000
