14
-84.25071
C    -1.582000000     0.222000000     1.513000000
H    -2.496000000    -0.103000000     2.003000000
C    -0.990000000    -0.385000000     0.384000000
H    -1.303000000    -1.375000000     0.061000000
C    -0.004000000     0.301000000    -0.305000000
H     0.427000000    -0.157000000    -1.136000000
C     0.457000000     1.492000000     0.157000000
H     1.237000000     1.934000000    -0.459000000
C    -0.019000000     2.043000000     1.357000000
H     0.412000000     2.992000000     1.666000000
C    -1.116000000     1.448000000     2.029000000
C    -1.763000000     2.097000000     3.267000000
O    -1.287000000     3.067000000     3.755000000
O    -2.840000000     1.709000000     3.679000000
