14
-77.89590
C    -1.730000000     0.318000000     1.620000000
H    -2.337000000    -0.378000000     2.192000000
C    -0.633000000    -0.168000000     0.830000000
H    -0.611000000    -1.229000000     0.597000000
C     0.301000000     0.711000000     0.336000000
H     1.177000000     0.286000000    -0.245000000
C     0.143000000     2.092000000     0.631000000
H     0.864000000     2.817000000     0.264000000
C    -1.014000000     2.564000000     1.318000000
H    -1.030000000     3.614000000     1.599000000
C    -1.912000000     1.684000000     1.962000000
C    -2.961000000     2.157000000     2.900000000
O    -3.375000000     3.267000000     2.946000000
O    -3.438000000     1.386000000     3.702000000
