14
-86.75760
C    -1.049000000     0.176000000     1.961000000
H    -1.539000000     0.067000000     2.925000000
C    -0.988000000    -1.002000000     1.194000000
H    -1.357000000    -1.931000000     1.621000000
C    -0.344000000    -0.949000000    -0.070000000
H    -0.178000000    -1.859000000    -0.727000000
C     0.221000000     0.196000000    -0.549000000
H     0.758000000     0.226000000    -1.494000000
C     0.203000000     1.316000000     0.269000000
H     0.749000000     2.191000000    -0.075000000
C    -0.409000000     1.364000000     1.560000000
C    -0.234000000     2.572000000     2.405000000
O     0.101000000     3.607000000     1.882000000
O    -0.612000000     2.601000000     3.593000000
