14
-83.05591
C     0.826000000     0.200000000     2.484000000
H     1.324000000    -0.105000000     3.401000000
C     0.367000000    -0.742000000     1.607000000
H     0.322000000    -1.758000000     1.991000000
C    -0.088000000    -0.327000000     0.348000000
H    -0.497000000    -1.057000000    -0.283000000
C    -0.154000000     0.977000000    -0.015000000
H    -0.481000000     1.234000000    -1.019000000
C     0.278000000     1.958000000     0.902000000
H     0.196000000     3.007000000     0.630000000
C     0.815000000     1.572000000     2.142000000
C     1.373000000     2.690000000     3.026000000
O     1.482000000     3.812000000     2.578000000
O     1.900000000     2.516000000     4.094000000
