14
-83.30644
C     1.480000000     0.228000000     2.034000000
H     2.004000000    -0.144000000     2.911000000
C     0.980000000    -0.578000000     1.016000000
H     1.257000000    -1.629000000     1.000000000
C     0.230000000    -0.095000000    -0.033000000
H     0.030000000    -0.759000000    -0.833000000
C    -0.019000000     1.208000000    -0.144000000
H    -0.595000000     1.615000000    -0.971000000
C     0.292000000     2.099000000     0.899000000
H    -0.175000000     3.080000000     0.921000000
C     1.086000000     1.599000000     2.014000000
C     1.425000000     2.477000000     3.152000000
O     1.322000000     3.695000000     3.058000000
O     1.795000000     1.976000000     4.182000000
