14
-88.25966
C     0.701000000     0.064000000     2.141000000
H     1.021000000    -0.323000000     3.105000000
C     0.370000000    -0.905000000     1.200000000
H     0.518000000    -1.940000000     1.497000000
C     0.015000000    -0.542000000    -0.100000000
H    -0.284000000    -1.327000000    -0.816000000
C     0.038000000     0.807000000    -0.469000000
H    -0.145000000     1.037000000    -1.516000000
C     0.313000000     1.823000000     0.436000000
H     0.382000000     2.863000000     0.126000000
C     0.682000000     1.448000000     1.782000000
C     0.835000000     2.458000000     2.883000000
O     0.994000000     3.594000000     2.564000000
O     0.759000000     2.145000000     4.092000000
