14
-81.84086
C     1.269000000     0.069000000     2.123000000
H     1.860000000    -0.028000000     3.029000000
C     1.261000000    -0.918000000     1.197000000
H     1.749000000    -1.867000000     1.403000000
C     0.536000000    -0.780000000     0.055000000
H     0.440000000    -1.589000000    -0.717000000
C    -0.160000000     0.401000000    -0.191000000
H    -0.832000000     0.627000000    -1.015000000
C    -0.013000000     1.522000000     0.730000000
H    -0.583000000     2.439000000     0.603000000
C     0.660000000     1.287000000     1.935000000
C     0.761000000     2.396000000     2.960000000
O     0.173000000     3.408000000     2.718000000
O     1.277000000     2.287000000     4.054000000
