14
-88.62652
C     1.454000000     0.429000000     1.950000000
H     2.065000000     0.096000000     2.785000000
C     1.145000000    -0.532000000     0.963000000
H     1.597000000    -1.516000000     0.871000000
C     0.326000000    -0.194000000    -0.095000000
H     0.089000000    -0.852000000    -0.995000000
C    -0.165000000     1.107000000    -0.124000000
H    -0.719000000     1.372000000    -1.021000000
C     0.124000000     2.036000000     0.907000000
H    -0.365000000     3.002000000     0.809000000
C     0.928000000     1.728000000     1.977000000
C     1.191000000     2.685000000     3.116000000
O     0.554000000     3.701000000     3.266000000
O     2.105000000     2.412000000     3.906000000
