14
-87.16784
C     1.594000000    -0.156000000     1.910000000
H     2.130000000    -0.956000000     2.414000000
C     1.104000000    -0.476000000     0.687000000
H     1.499000000    -1.356000000     0.185000000
C     0.277000000     0.401000000     0.065000000
H    -0.072000000     0.105000000    -0.929000000
C    -0.120000000     1.606000000     0.668000000
H    -0.820000000     2.310000000     0.224000000
C     0.310000000     1.913000000     1.974000000
H     0.062000000     2.845000000     2.477000000
C     1.228000000     1.009000000     2.607000000
C     1.514000000     1.181000000     4.054000000
O     1.404000000     2.325000000     4.544000000
O     1.804000000     0.228000000     4.718000000
