14
-76.85460
C     1.549000000    -0.267000000     1.854000000
H     2.163000000    -0.741000000     2.615000000
C     1.408000000    -0.984000000     0.735000000
H     2.029000000    -1.866000000     0.603000000
C     0.611000000    -0.537000000    -0.194000000
H     0.621000000    -1.122000000    -1.104000000
C    -0.099000000     0.680000000    -0.045000000
H    -0.727000000     1.057000000    -0.848000000
C    -0.014000000     1.410000000     1.186000000
H    -0.501000000     2.380000000     1.241000000
C     0.803000000     0.852000000     2.180000000
C     0.893000000     1.544000000     3.489000000
O     0.296000000     2.582000000     3.697000000
O     1.444000000     0.989000000     4.470000000
