14
-85.14920
C     1.611000000    -0.697000000     2.635000000
H     2.148000000    -1.300000000     3.363000000
C     1.191000000    -1.285000000     1.438000000
H     1.574000000    -2.252000000     1.122000000
C     0.481000000    -0.531000000     0.514000000
H     0.152000000    -1.033000000    -0.339000000
C     0.106000000     0.744000000     0.811000000
H    -0.484000000     1.276000000     0.070000000
C     0.555000000     1.379000000     1.931000000
H     0.374000000     2.443000000     2.067000000
C     1.291000000     0.665000000     2.906000000
C     1.418000000     1.232000000     4.240000000
O     1.084000000     2.394000000     4.461000000
O     1.682000000     0.523000000     5.211000000
