14
-90.25346
C     0.922000000     0.077000000     2.052000000
H     1.421000000    -0.147000000     2.992000000
C     1.267000000    -0.628000000     0.859000000
H     2.095000000    -1.333000000     0.839000000
C     0.581000000    -0.334000000    -0.326000000
H     0.749000000    -0.952000000    -1.179000000
C    -0.423000000     0.636000000    -0.323000000
H    -0.937000000     0.761000000    -1.272000000
C    -0.887000000     1.217000000     0.915000000
H    -1.664000000     1.967000000     1.039000000
C    -0.139000000     0.984000000     2.065000000
C    -0.560000000     1.718000000     3.349000000
O    -1.387000000     2.631000000     3.304000000
O     0.008000000     1.472000000     4.403000000
