14
-81.07960
C     0.268000000     0.148000000     1.988000000
H     0.589000000     0.031000000     3.020000000
C     1.021000000    -0.542000000     1.113000000
H     1.823000000    -1.181000000     1.476000000
C     0.813000000    -0.445000000    -0.235000000
H     1.367000000    -0.976000000    -0.996000000
C    -0.215000000     0.300000000    -0.712000000
H    -0.406000000     0.241000000    -1.780000000
C    -1.081000000     0.946000000     0.264000000
H    -1.975000000     1.469000000    -0.068000000
C    -0.860000000     0.812000000     1.643000000
C    -1.670000000     1.586000000     2.635000000
O    -2.188000000     2.716000000     2.355000000
O    -1.934000000     1.061000000     3.690000000
