14
-83.23447
C     0.770000000    -0.174000000     2.017000000
H     1.159000000    -0.496000000     2.980000000
C     0.878000000    -1.091000000     0.971000000
H     1.302000000    -2.078000000     1.137000000
C     0.302000000    -0.754000000    -0.267000000
H     0.254000000    -1.532000000    -1.083000000
C    -0.190000000     0.453000000    -0.397000000
H    -0.611000000     0.710000000    -1.366000000
C    -0.220000000     1.418000000     0.626000000
H    -0.439000000     2.458000000     0.398000000
C     0.311000000     1.130000000     1.836000000
C     0.179000000     2.026000000     3.097000000
O     0.056000000     3.202000000     2.944000000
O     0.271000000     1.536000000     4.225000000
