14
-81.84145
C     1.217000000     0.588000000     2.644000000
H     1.918000000     0.288000000     3.419000000
C     0.829000000    -0.354000000     1.665000000
H     1.307000000    -1.330000000     1.646000000
C    -0.003000000     0.029000000     0.655000000
H    -0.218000000    -0.711000000    -0.134000000
C    -0.485000000     1.347000000     0.634000000
H    -1.120000000     1.703000000    -0.174000000
C    -0.231000000     2.317000000     1.596000000
H    -0.565000000     3.350000000     1.545000000
C     0.647000000     1.908000000     2.641000000
C     0.963000000     2.758000000     3.843000000
O     0.656000000     3.895000000     3.914000000
O     1.523000000     2.284000000     4.822000000
