14
-84.89867
C     0.377000000     0.578000000     2.902000000
H     1.031000000     0.497000000     3.766000000
C     0.607000000    -0.179000000     1.726000000
H     1.434000000    -0.883000000     1.687000000
C    -0.086000000     0.128000000     0.544000000
H     0.003000000    -0.369000000    -0.441000000
C    -1.026000000     1.168000000     0.497000000
H    -1.694000000     1.321000000    -0.347000000
C    -1.344000000     1.821000000     1.722000000
H    -2.215000000     2.467000000     1.650000000
C    -0.607000000     1.621000000     2.892000000
C    -0.945000000     2.325000000     4.150000000
O    -1.797000000     3.163000000     4.286000000
O    -0.242000000     2.049000000     5.143000000
