14
-73.81122
C     0.316000000    -0.216000000     2.432000000
H     0.612000000    -0.543000000     3.426000000
C     1.058000000    -0.665000000     1.333000000
H     1.987000000    -1.218000000     1.445000000
C     0.562000000    -0.442000000     0.002000000
H     1.266000000    -0.750000000    -0.798000000
C    -0.688000000     0.193000000    -0.234000000
H    -0.950000000     0.306000000    -1.282000000
C    -1.443000000     0.594000000     0.850000000
H    -2.385000000     1.121000000     0.724000000
C    -0.940000000     0.381000000     2.187000000
C    -1.938000000     0.790000000     3.348000000
O    -2.909000000     1.494000000     3.218000000
O    -1.820000000     0.462000000     4.507000000
