14
-81.28020
C    -1.559000000    -1.221000000     2.426000000
H    -1.935000000    -1.937000000     3.152000000
C    -0.321000000    -1.256000000     1.765000000
H     0.452000000    -1.928000000     2.131000000
C    -0.002000000    -0.435000000     0.720000000
H     1.023000000    -0.498000000     0.312000000
C    -0.921000000     0.433000000     0.224000000
H    -0.715000000     1.093000000    -0.615000000
C    -2.177000000     0.521000000     0.895000000
H    -2.851000000     1.258000000     0.465000000
C    -2.497000000    -0.348000000     1.991000000
C    -3.849000000    -0.232000000     2.759000000
O    -4.639000000     0.626000000     2.544000000
O    -4.135000000    -1.083000000     3.565000000
