14
-89.90848
C    -1.934000000    -0.965000000     2.175000000
H    -1.994000000    -1.890000000     2.741000000
C    -1.166000000    -0.921000000     1.011000000
H    -0.497000000    -1.744000000     0.772000000
C    -1.270000000     0.239000000     0.222000000
H    -0.771000000     0.214000000    -0.721000000
C    -2.115000000     1.238000000     0.546000000
H    -2.266000000     1.998000000    -0.216000000
C    -2.856000000     1.212000000     1.744000000
H    -3.359000000     2.120000000     2.067000000
C    -2.789000000     0.133000000     2.576000000
C    -3.663000000     0.083000000     3.832000000
O    -4.179000000     1.090000000     4.312000000
O    -3.758000000    -0.992000000     4.440000000
