14
-92.03764
C    -0.654000000    -0.688000000     1.849000000
H    -0.676000000    -1.165000000     2.826000000
C     0.511000000    -0.756000000     1.158000000
H     1.434000000    -1.155000000     1.572000000
C     0.588000000    -0.290000000    -0.159000000
H     1.518000000    -0.302000000    -0.787000000
C    -0.451000000     0.511000000    -0.647000000
H    -0.412000000     0.971000000    -1.631000000
C    -1.625000000     0.653000000     0.139000000
H    -2.409000000     1.347000000    -0.155000000
C    -1.734000000     0.082000000     1.396000000
C    -3.002000000     0.186000000     2.223000000
O    -3.882000000     1.013000000     1.951000000
O    -3.070000000    -0.525000000     3.238000000
