14
-82.62389
C    -1.667000000    -0.860000000     2.757000000
H    -1.494000000    -1.539000000     3.588000000
C    -0.732000000    -0.628000000     1.697000000
H     0.227000000    -1.141000000     1.719000000
C    -1.018000000     0.240000000     0.638000000
H    -0.347000000     0.340000000    -0.213000000
C    -2.170000000     0.950000000     0.607000000
H    -2.464000000     1.653000000    -0.168000000
C    -3.124000000     0.711000000     1.603000000
H    -4.084000000     1.218000000     1.549000000
C    -2.937000000    -0.234000000     2.644000000
C    -3.973000000    -0.338000000     3.757000000
O    -4.931000000     0.345000000     3.719000000
O    -3.924000000    -1.205000000     4.606000000
