14
-91.15723
C    -1.344000000    -0.380000000     2.522000000
H    -1.468000000    -0.736000000     3.541000000
C    -0.209000000    -0.742000000     1.742000000
H     0.648000000    -1.258000000     2.166000000
C    -0.158000000    -0.312000000     0.404000000
H     0.640000000    -0.450000000    -0.317000000
C    -1.226000000     0.503000000    -0.077000000
H    -1.308000000     0.846000000    -1.105000000
C    -2.262000000     0.859000000     0.749000000
H    -2.965000000     1.592000000     0.359000000
C    -2.368000000     0.478000000     2.090000000
C    -3.486000000     0.982000000     2.995000000
O    -4.467000000     1.542000000     2.467000000
O    -3.386000000     0.952000000     4.240000000
