14
-87.39736
C    -1.813000000    -1.266000000     2.359000000
H    -1.796000000    -2.060000000     3.100000000
C    -0.940000000    -1.318000000     1.262000000
H    -0.266000000    -2.155000000     1.096000000
C    -1.025000000    -0.314000000     0.232000000
H    -0.299000000    -0.239000000    -0.612000000
C    -1.929000000     0.719000000     0.380000000
H    -1.942000000     1.591000000    -0.267000000
C    -2.862000000     0.761000000     1.455000000
H    -3.479000000     1.651000000     1.537000000
C    -2.746000000    -0.206000000     2.429000000
C    -3.675000000    -0.067000000     3.563000000
O    -4.611000000     0.696000000     3.541000000
O    -3.377000000    -0.690000000     4.569000000
