14
-87.07280
C    -1.385000000    -0.384000000     1.287000000
H    -2.127000000    -1.144000000     1.515000000
C    -0.744000000    -0.455000000     0.052000000
H    -0.987000000    -1.274000000    -0.620000000
C     0.256000000     0.410000000    -0.373000000
H     0.753000000     0.279000000    -1.326000000
C     0.701000000     1.304000000     0.566000000
H     1.563000000     1.925000000     0.337000000
C     0.136000000     1.375000000     1.818000000
H     0.536000000     2.150000000     2.467000000
C    -0.931000000     0.529000000     2.220000000
C    -1.518000000     0.579000000     3.638000000
O    -0.975000000     1.152000000     4.621000000
O    -2.413000000    -0.197000000     3.835000000
