14
-87.83081
C    -1.746000000    -0.986000000     0.895000000
H    -2.412000000    -1.841000000     0.818000000
C    -0.598000000    -0.922000000     0.124000000
H    -0.424000000    -1.682000000    -0.634000000
C     0.346000000     0.115000000     0.215000000
H     1.218000000     0.142000000    -0.407000000
C     0.135000000     1.129000000     1.143000000
H     0.722000000     2.044000000     1.134000000
C    -1.019000000     1.027000000     1.914000000
H    -1.244000000     1.859000000     2.577000000
C    -1.947000000    -0.037000000     1.897000000
C    -3.251000000    -0.054000000     2.760000000
O    -3.399000000     0.641000000     3.774000000
O    -4.114000000    -0.855000000     2.508000000
