14
-84.58030
C    -1.822000000    -0.249000000     0.470000000
H    -2.679000000    -0.906000000     0.350000000
C    -0.708000000    -0.396000000    -0.336000000
H    -0.561000000    -1.203000000    -1.048000000
C     0.391000000     0.471000000    -0.155000000
H     1.262000000     0.304000000    -0.870000000
C     0.250000000     1.559000000     0.719000000
H     1.032000000     2.300000000     0.868000000
C    -0.891000000     1.733000000     1.491000000
H    -0.952000000     2.536000000     2.222000000
C    -1.871000000     0.726000000     1.499000000
C    -3.051000000     0.786000000     2.518000000
O    -2.945000000     1.391000000     3.573000000
O    -4.004000000     0.041000000     2.427000000
