14
-91.64664
C    -1.133000000    -0.836000000     1.669000000
H    -1.788000000    -1.545000000     2.170000000
C    -0.715000000    -0.992000000     0.346000000
H    -0.918000000    -1.943000000    -0.139000000
C     0.145000000    -0.056000000    -0.206000000
H     0.441000000    -0.137000000    -1.286000000
C     0.581000000     1.001000000     0.565000000
H     1.211000000     1.744000000     0.082000000
C     0.215000000     1.124000000     1.891000000
H     0.454000000     1.975000000     2.524000000
C    -0.681000000     0.223000000     2.482000000
C    -1.100000000     0.371000000     3.868000000
O    -0.728000000     1.431000000     4.456000000
O    -1.858000000    -0.426000000     4.456000000
