14
-87.09889
C    -1.170000000    -0.447000000     1.093000000
H    -1.960000000    -1.180000000     1.232000000
C    -0.305000000    -0.567000000     0.016000000
H    -0.265000000    -1.448000000    -0.620000000
C     0.605000000     0.539000000    -0.175000000
H     1.265000000     0.426000000    -1.060000000
C     0.612000000     1.662000000     0.661000000
H     1.361000000     2.428000000     0.480000000
C    -0.302000000     1.731000000     1.753000000
H    -0.296000000     2.604000000     2.400000000
C    -1.149000000     0.608000000     2.020000000
C    -2.299000000     0.748000000     3.000000000
O    -2.482000000     1.795000000     3.595000000
O    -3.058000000    -0.173000000     3.192000000
