14
-81.93061
C    -2.292000000     0.044000000    -0.503000000
H    -3.368000000    -0.034000000    -0.369000000
C    -1.494000000    -1.061000000    -0.382000000
H    -1.950000000    -2.046000000    -0.331000000
C    -0.063000000    -0.909000000    -0.304000000
H     0.531000000    -1.795000000    -0.200000000
C     0.514000000     0.373000000    -0.283000000
H     1.590000000     0.356000000    -0.136000000
C    -0.315000000     1.528000000    -0.305000000
H     0.144000000     2.497000000    -0.125000000
C    -1.734000000     1.374000000    -0.374000000
C    -2.613000000     2.645000000    -0.463000000
O    -2.071000000     3.720000000    -0.383000000
O    -3.772000000     2.500000000    -0.143000000
