14
-83.60966
C    -1.423000000    -0.207000000     2.337000000
H    -1.899000000    -0.708000000     3.176000000
C    -1.314000000    -0.861000000     1.082000000
H    -1.644000000    -1.892000000     0.980000000
C    -0.786000000    -0.139000000    -0.016000000
H    -0.849000000    -0.521000000    -0.993000000
C    -0.202000000     1.090000000     0.126000000
H     0.310000000     1.654000000    -0.649000000
C    -0.450000000     1.761000000     1.396000000
H    -0.190000000     2.817000000     1.404000000
C    -1.052000000     1.137000000     2.427000000
C    -1.200000000     1.867000000     3.711000000
O    -0.723000000     2.978000000     3.774000000
O    -1.558000000     1.265000000     4.682000000
