14
-86.95215
C    -0.420000000    -0.792000000     2.667000000
H    -0.922000000    -1.529000000     3.289000000
C    -0.162000000    -1.131000000     1.383000000
H    -0.453000000    -2.134000000     1.083000000
C     0.586000000    -0.310000000     0.542000000
H     0.724000000    -0.616000000    -0.507000000
C     0.894000000     0.985000000     1.008000000
H     1.453000000     1.646000000     0.350000000
C     0.672000000     1.345000000     2.352000000
H     1.133000000     2.237000000     2.768000000
C    -0.015000000     0.468000000     3.188000000
C    -0.365000000     0.837000000     4.569000000
O     0.119000000     1.918000000     4.961000000
O    -0.908000000     0.126000000     5.391000000
