14
-87.14865
C    -0.489000000    -0.877000000     2.196000000
H    -0.624000000    -1.422000000     3.127000000
C    -0.610000000    -1.655000000     1.026000000
H    -0.940000000    -2.689000000     1.090000000
C    -0.440000000    -0.956000000    -0.220000000
H    -0.647000000    -1.542000000    -1.121000000
C     0.067000000     0.341000000    -0.256000000
H     0.202000000     0.885000000    -1.187000000
C     0.267000000     1.012000000     0.921000000
H     0.570000000     2.056000000     0.915000000
C    -0.034000000     0.448000000     2.189000000
C     0.063000000     1.124000000     3.480000000
O     0.301000000     2.318000000     3.466000000
O    -0.100000000     0.522000000     4.511000000
