14
-94.10842
C    -0.486000000    -0.603000000     2.376000000
H    -0.776000000    -1.225000000     3.219000000
C    -0.446000000    -1.127000000     1.103000000
H    -0.709000000    -2.178000000     1.005000000
C    -0.074000000    -0.397000000     0.021000000
H    -0.091000000    -0.855000000    -0.977000000
C     0.282000000     0.911000000     0.155000000
H     0.451000000     1.481000000    -0.755000000
C     0.306000000     1.494000000     1.448000000
H     0.543000000     2.553000000     1.514000000
C    -0.086000000     0.723000000     2.568000000
C     0.087000000     1.313000000     3.969000000
O     0.577000000     2.440000000     4.140000000
O    -0.286000000     0.581000000     4.903000000
