14
-89.61647
C    -0.976000000    -0.168000000     2.574000000
H    -1.421000000    -0.679000000     3.424000000
C    -0.857000000    -0.799000000     1.323000000
H    -1.356000000    -1.738000000     1.095000000
C    -0.137000000    -0.175000000     0.329000000
H    -0.011000000    -0.657000000    -0.663000000
C     0.471000000     1.079000000     0.499000000
H     0.926000000     1.652000000    -0.306000000
C     0.380000000     1.714000000     1.795000000
H     0.865000000     2.680000000     1.912000000
C    -0.410000000     1.137000000     2.798000000
C    -0.676000000     1.757000000     4.164000000
O     0.096000000     2.637000000     4.523000000
O    -1.502000000     1.313000000     4.997000000
