14
-87.21749
C    -0.756000000    -0.394000000     2.158000000
H    -1.161000000    -1.218000000     2.739000000
C    -0.505000000    -0.536000000     0.764000000
H    -0.708000000    -1.459000000     0.227000000
C    -0.047000000     0.528000000     0.011000000
H     0.119000000     0.363000000    -1.039000000
C    -0.010000000     1.793000000     0.604000000
H     0.352000000     2.592000000    -0.037000000
C    -0.294000000     1.978000000     1.980000000
H    -0.313000000     3.018000000     2.297000000
C    -0.823000000     0.919000000     2.723000000
C    -1.274000000     1.115000000     4.152000000
O    -1.193000000     2.288000000     4.576000000
O    -1.690000000     0.243000000     4.863000000
