14
-81.75187
C    -0.693000000    -0.758000000     2.293000000
H    -1.054000000    -1.310000000     3.157000000
C    -0.566000000    -1.484000000     1.103000000
H    -0.649000000    -2.567000000     1.133000000
C    -0.053000000    -0.894000000    -0.026000000
H     0.050000000    -1.475000000    -0.922000000
C     0.283000000     0.461000000     0.048000000
H     0.528000000     0.993000000    -0.867000000
C     0.186000000     1.176000000     1.270000000
H     0.279000000     2.259000000     1.279000000
C    -0.264000000     0.554000000     2.351000000
C    -0.299000000     1.260000000     3.739000000
O     0.411000000     2.179000000     4.034000000
O    -1.086000000     0.866000000     4.564000000
