14
-81.71677
C    -2.649000000     1.022000000    -0.752000000
H    -3.608000000     0.789000000    -1.208000000
C    -1.667000000     0.041000000    -0.500000000
H    -1.790000000    -0.989000000    -0.826000000
C    -0.476000000     0.352000000     0.019000000
H     0.277000000    -0.474000000     0.070000000
C    -0.292000000     1.654000000     0.467000000
H     0.678000000     1.947000000     0.861000000
C    -1.249000000     2.658000000     0.358000000
H    -0.938000000     3.684000000     0.536000000
C    -2.398000000     2.353000000    -0.426000000
C    -3.391000000     3.455000000    -0.734000000
O    -3.408000000     4.459000000    -0.072000000
O    -4.264000000     3.312000000    -1.568000000
