14
-83.79882
C    -0.750000000    -0.654000000     2.010000000
H    -0.908000000    -1.396000000     2.788000000
C    -0.663000000    -1.098000000     0.625000000
H    -0.985000000    -2.106000000     0.373000000
C    -0.383000000    -0.155000000    -0.312000000
H    -0.341000000    -0.397000000    -1.355000000
C    -0.134000000     1.165000000    -0.028000000
H     0.129000000     1.894000000    -0.791000000
C    -0.056000000     1.604000000     1.298000000
H     0.125000000     2.653000000     1.518000000
C    -0.396000000     0.727000000     2.303000000
C    -0.160000000     1.189000000     3.789000000
O     0.370000000     2.305000000     4.095000000
O    -0.463000000     0.456000000     4.708000000
