14
-88.28113
C    -0.593000000    -1.031000000     2.382000000
H    -0.664000000    -1.810000000     3.137000000
C     0.127000000    -1.343000000     1.260000000
H     0.521000000    -2.355000000     1.220000000
C     0.302000000    -0.422000000     0.231000000
H     0.798000000    -0.754000000    -0.735000000
C    -0.297000000     0.879000000     0.339000000
H    -0.029000000     1.596000000    -0.433000000
C    -1.085000000     1.206000000     1.475000000
H    -1.481000000     2.199000000     1.670000000
C    -1.236000000     0.214000000     2.492000000
C    -2.004000000     0.583000000     3.724000000
O    -2.370000000     1.736000000     3.944000000
O    -2.239000000    -0.252000000     4.598000000
