14
-86.74618
C    -0.317000000    -0.274000000     3.997000000
H    -0.197000000    -0.751000000     4.966000000
C     0.431000000    -0.688000000     2.901000000
H     1.184000000    -1.466000000     2.993000000
C     0.254000000    -0.029000000     1.709000000
H     0.867000000    -0.295000000     0.893000000
C    -0.733000000     0.881000000     1.531000000
H    -0.948000000     1.495000000     0.660000000
C    -1.547000000     1.270000000     2.602000000
H    -2.312000000     2.033000000     2.477000000
C    -1.382000000     0.648000000     3.853000000
C    -2.160000000     1.140000000     5.105000000
O    -3.023000000     1.989000000     5.031000000
O    -1.846000000     0.716000000     6.184000000
