14
-86.50731
C    -0.816000000    -0.608000000     2.431000000
H    -0.878000000    -1.527000000     3.008000000
C    -0.224000000    -0.683000000     1.140000000
H     0.095000000    -1.638000000     0.732000000
C    -0.185000000     0.484000000     0.290000000
H     0.268000000     0.555000000    -0.693000000
C    -0.880000000     1.608000000     0.651000000
H    -0.972000000     2.429000000    -0.055000000
C    -1.474000000     1.605000000     1.920000000
H    -1.991000000     2.523000000     2.186000000
C    -1.408000000     0.546000000     2.825000000
C    -2.200000000     0.636000000     4.119000000
O    -2.690000000     1.749000000     4.501000000
O    -2.162000000    -0.299000000     4.893000000
