14
-84.69169
C    -0.632000000    -1.043000000     2.173000000
H    -0.710000000    -1.698000000     3.037000000
C    -0.027000000    -1.480000000     0.931000000
H     0.288000000    -2.510000000     0.787000000
C     0.155000000    -0.563000000    -0.112000000
H     0.580000000    -0.825000000    -1.159000000
C    -0.068000000     0.793000000     0.065000000
H     0.020000000     1.450000000    -0.797000000
C    -0.657000000     1.140000000     1.321000000
H    -0.896000000     2.197000000     1.403000000
C    -0.963000000     0.288000000     2.376000000
C    -1.608000000     0.869000000     3.589000000
O    -1.423000000     2.027000000     3.888000000
O    -2.301000000     0.147000000     4.307000000
