14
-81.93708
C    -1.264000000    -0.327000000     2.319000000
H    -1.595000000    -1.294000000     2.688000000
C    -0.274000000    -0.347000000     1.374000000
H     0.142000000    -1.251000000     0.936000000
C     0.349000000     0.786000000     0.962000000
H     1.209000000     0.707000000     0.375000000
C    -0.120000000     2.022000000     1.382000000
H     0.331000000     2.898000000     0.924000000
C    -1.119000000     2.064000000     2.305000000
H    -1.550000000     2.993000000     2.670000000
C    -1.694000000     0.848000000     2.863000000
C    -2.762000000     0.757000000     3.900000000
O    -3.448000000     1.745000000     4.083000000
O    -2.747000000    -0.118000000     4.783000000
