14
-94.89280
C    -0.563000000     0.825000000     2.317000000
H    -1.501000000     0.839000000     2.866000000
C    -0.436000000     0.418000000     1.011000000
H    -1.276000000     0.026000000     0.444000000
C     0.794000000     0.444000000     0.398000000
H     0.957000000     0.142000000    -0.607000000
C     1.916000000     0.809000000     1.099000000
H     2.899000000     0.805000000     0.634000000
C     1.832000000     1.230000000     2.414000000
H     2.738000000     1.495000000     2.953000000
C     0.583000000     1.210000000     3.063000000
C     0.457000000     1.736000000     4.457000000
O     1.506000000     1.861000000     5.134000000
O    -0.662000000     2.040000000     4.830000000
