14
-82.74356
C     0.172000000    -0.998000000     2.376000000
H     0.301000000    -1.706000000     3.191000000
C     0.158000000    -1.604000000     1.095000000
H     0.283000000    -2.673000000     0.945000000
C    -0.130000000    -0.812000000    -0.058000000
H    -0.220000000    -1.271000000    -1.032000000
C    -0.338000000     0.493000000     0.147000000
H    -0.472000000     1.086000000    -0.754000000
C    -0.318000000     1.121000000     1.362000000
H    -0.466000000     2.198000000     1.384000000
C    -0.078000000     0.360000000     2.548000000
C    -0.023000000     1.026000000     3.922000000
O    -0.463000000     2.161000000     4.140000000
O     0.435000000     0.408000000     4.808000000
