14
-84.93232
C    -0.806000000    -0.684000000     1.872000000
H    -0.937000000    -1.642000000     2.369000000
C    -0.442000000    -0.635000000     0.586000000
H    -0.285000000    -1.585000000     0.081000000
C    -0.151000000     0.578000000    -0.040000000
H     0.353000000     0.545000000    -1.009000000
C    -0.426000000     1.746000000     0.677000000
H    -0.106000000     2.656000000     0.176000000
C    -0.809000000     1.711000000     2.021000000
H    -0.982000000     2.580000000     2.651000000
C    -0.878000000     0.500000000     2.627000000
C    -1.163000000     0.387000000     4.158000000
O    -1.172000000     1.406000000     4.821000000
O    -1.579000000    -0.641000000     4.613000000
