14
-85.68642
C     1.150000000    -0.545000000     2.154000000
H     1.569000000    -1.311000000     2.801000000
C     0.541000000    -1.008000000     0.967000000
H     0.494000000    -2.086000000     0.833000000
C     0.170000000    -0.142000000     0.005000000
H    -0.159000000    -0.515000000    -0.897000000
C     0.232000000     1.200000000     0.253000000
H    -0.073000000     1.888000000    -0.532000000
C     0.743000000     1.716000000     1.491000000
H     0.868000000     2.767000000     1.737000000
C     1.249000000     0.816000000     2.455000000
C     1.774000000     1.345000000     3.755000000
O     1.680000000     2.523000000     4.097000000
O     2.191000000     0.546000000     4.560000000
