14
-85.82141
C    -2.724000000     0.379000000    -0.444000000
H    -3.769000000     0.211000000    -0.691000000
C    -1.994000000    -0.791000000    -0.174000000
H    -2.436000000    -1.784000000    -0.185000000
C    -0.629000000    -0.710000000     0.024000000
H    -0.172000000    -1.682000000    -0.068000000
C    -0.033000000     0.521000000     0.239000000
H     1.019000000     0.742000000     0.400000000
C    -0.756000000     1.679000000     0.065000000
H    -0.407000000     2.681000000     0.303000000
C    -2.096000000     1.595000000    -0.312000000
C    -3.004000000     2.756000000    -0.315000000
O    -2.538000000     3.819000000     0.066000000
O    -4.192000000     2.635000000    -0.692000000
