14
-86.95475
C     1.271000000    -0.579000000     2.159000000
H     1.720000000    -1.478000000     2.574000000
C     0.687000000    -0.594000000     0.903000000
H     0.711000000    -1.421000000     0.198000000
C    -0.075000000     0.472000000     0.397000000
H    -0.394000000     0.370000000    -0.618000000
C    -0.303000000     1.551000000     1.240000000
H    -0.760000000     2.417000000     0.768000000
C     0.298000000     1.625000000     2.490000000
H     0.001000000     2.468000000     3.109000000
C     1.157000000     0.610000000     2.929000000
C     1.597000000     0.623000000     4.351000000
O     1.260000000     1.506000000     5.146000000
O     2.219000000    -0.384000000     4.826000000
