14
-88.37067
C     2.261000000    -1.150000000     2.457000000
H     2.710000000    -1.972000000     3.008000000
C     1.350000000    -1.360000000     1.410000000
H     1.133000000    -2.378000000     1.098000000
C     0.632000000    -0.243000000     0.878000000
H    -0.157000000    -0.391000000     0.104000000
C     1.078000000     1.026000000     1.229000000
H     0.579000000     1.860000000     0.743000000
C     2.090000000     1.257000000     2.121000000
H     2.431000000     2.227000000     2.472000000
C     2.663000000     0.176000000     2.747000000
C     3.807000000     0.318000000     3.863000000
O     4.225000000     1.425000000     4.155000000
O     4.244000000    -0.655000000     4.425000000
