14
-86.12000
C     1.661000000    -1.081000000     2.049000000
H     2.250000000    -1.967000000     2.272000000
C     0.922000000    -1.063000000     0.920000000
H     0.891000000    -1.844000000     0.164000000
C     0.229000000     0.102000000     0.543000000
H    -0.204000000     0.231000000    -0.436000000
C     0.318000000     1.184000000     1.303000000
H    -0.165000000     2.120000000     1.031000000
C     1.077000000     1.127000000     2.470000000
H     1.203000000     2.076000000     2.984000000
C     1.709000000    -0.024000000     2.934000000
C     2.568000000    -0.146000000     4.194000000
O     3.050000000     0.918000000     4.592000000
O     2.933000000    -1.251000000     4.599000000
