14
-84.64279
C     1.881000000    -0.675000000     1.633000000
H     2.777000000    -1.265000000     1.810000000
C     1.018000000    -1.021000000     0.561000000
H     1.104000000    -1.939000000    -0.014000000
C    -0.068000000    -0.227000000     0.310000000
H    -0.733000000    -0.482000000    -0.512000000
C    -0.435000000     0.817000000     1.195000000
H    -1.373000000     1.323000000     0.986000000
C     0.369000000     1.108000000     2.352000000
H     0.049000000     1.857000000     3.072000000
C     1.545000000     0.375000000     2.517000000
C     2.434000000     0.707000000     3.716000000
O     2.102000000     1.534000000     4.469000000
O     3.353000000    -0.065000000     4.000000000
