14
-85.36405
C     2.017000000    -1.028000000     1.780000000
H     2.934000000    -1.594000000     1.924000000
C     1.319000000    -0.992000000     0.544000000
H     1.567000000    -1.707000000    -0.237000000
C     0.464000000     0.054000000     0.270000000
H    -0.028000000     0.167000000    -0.666000000
C     0.182000000     1.035000000     1.218000000
H    -0.469000000     1.889000000     1.049000000
C     0.737000000     0.940000000     2.425000000
H     0.555000000     1.653000000     3.225000000
C     1.641000000    -0.100000000     2.730000000
C     1.921000000    -0.308000000     4.191000000
O     1.392000000     0.407000000     4.988000000
O     2.722000000    -1.198000000     4.487000000
