14
-85.09931
C     1.383000000    -0.953000000     1.096000000
H     2.079000000    -1.723000000     1.421000000
C     0.532000000    -1.182000000    -0.024000000
H     0.704000000    -2.060000000    -0.641000000
C    -0.386000000    -0.177000000    -0.416000000
H    -0.991000000    -0.344000000    -1.340000000
C    -0.344000000     1.055000000     0.230000000
H    -0.976000000     1.828000000    -0.199000000
C     0.516000000     1.272000000     1.343000000
H     0.421000000     2.224000000     1.860000000
C     1.324000000     0.285000000     1.819000000
C     2.279000000     0.527000000     3.031000000
O     2.300000000     1.555000000     3.716000000
O     3.005000000    -0.361000000     3.460000000
