14
-82.59825
C     0.933000000    -1.549000000     2.401000000
H     1.475000000    -2.423000000     2.753000000
C    -0.077000000    -1.640000000     1.457000000
H    -0.335000000    -2.602000000     1.022000000
C    -0.823000000    -0.508000000     1.131000000
H    -1.643000000    -0.637000000     0.477000000
C    -0.452000000     0.717000000     1.597000000
H    -1.064000000     1.569000000     1.311000000
C     0.623000000     0.866000000     2.476000000
H     0.858000000     1.840000000     2.896000000
C     1.341000000    -0.306000000     2.889000000
C     2.382000000    -0.189000000     3.955000000
O     2.676000000     0.852000000     4.507000000
O     2.788000000    -1.186000000     4.440000000
