14
-85.37318
C     1.596000000    -1.027000000     1.549000000
H     2.177000000    -1.932000000     1.708000000
C     0.890000000    -0.959000000     0.306000000
H     1.025000000    -1.846000000    -0.308000000
C     0.181000000     0.203000000     0.058000000
H    -0.348000000     0.302000000    -0.902000000
C     0.065000000     1.203000000     1.048000000
H    -0.616000000     2.049000000     0.992000000
C     0.805000000     1.098000000     2.247000000
H     0.594000000     1.856000000     2.997000000
C     1.560000000    -0.046000000     2.502000000
C     2.261000000    -0.269000000     3.787000000
O     2.321000000     0.617000000     4.676000000
O     2.649000000    -1.360000000     4.075000000
