14
-84.54711
C     1.736000000    -0.707000000     1.832000000
H     2.421000000    -1.531000000     2.019000000
C     1.244000000    -0.540000000     0.567000000
H     1.453000000    -1.195000000    -0.275000000
C     0.408000000     0.511000000     0.318000000
H    -0.013000000     0.609000000    -0.663000000
C    -0.027000000     1.327000000     1.324000000
H    -0.668000000     2.184000000     1.134000000
C     0.562000000     1.157000000     2.567000000
H     0.243000000     1.846000000     3.345000000
C     1.483000000     0.205000000     2.889000000
C     2.197000000     0.115000000     4.212000000
O     1.987000000     0.899000000     5.146000000
O     2.984000000    -0.774000000     4.431000000
