14
-86.43276
C     1.640000000    -0.274000000     1.182000000
H     2.416000000    -1.014000000     1.360000000
C     0.780000000    -0.503000000     0.105000000
H     0.966000000    -1.353000000    -0.545000000
C    -0.355000000     0.245000000    -0.111000000
H    -1.016000000    -0.008000000    -0.929000000
C    -0.729000000     1.287000000     0.784000000
H    -1.597000000     1.884000000     0.515000000
C     0.102000000     1.551000000     1.888000000
H    -0.085000000     2.359000000     2.591000000
C     1.284000000     0.725000000     2.140000000
C     2.161000000     1.029000000     3.327000000
O     2.154000000     2.124000000     3.934000000
O     2.749000000     0.113000000     3.858000000
