14
-90.01206
C     1.427000000    -0.601000000     1.240000000
H     2.338000000    -1.194000000     1.229000000
C     0.538000000    -0.701000000     0.207000000
H     0.626000000    -1.374000000    -0.642000000
C    -0.462000000     0.279000000     0.041000000
H    -1.141000000     0.311000000    -0.814000000
C    -0.663000000     1.218000000     1.094000000
H    -1.496000000     1.917000000     1.069000000
C     0.160000000     1.223000000     2.206000000
H     0.068000000     1.962000000     2.998000000
C     1.262000000     0.331000000     2.259000000
C     2.243000000     0.385000000     3.451000000
O     2.044000000     1.149000000     4.438000000
O     3.183000000    -0.379000000     3.525000000
