14
-86.95026
C    -2.365000000     0.427000000    -0.253000000
H    -3.402000000     0.143000000    -0.412000000
C    -1.330000000    -0.543000000     0.107000000
H    -1.448000000    -1.620000000     0.190000000
C    -0.018000000    -0.043000000     0.202000000
H     0.704000000    -0.741000000     0.498000000
C     0.272000000     1.330000000     0.007000000
H     1.277000000     1.725000000     0.137000000
C    -0.798000000     2.209000000    -0.365000000
H    -0.498000000     3.238000000    -0.546000000
C    -2.097000000     1.769000000    -0.468000000
C    -3.211000000     2.749000000    -0.946000000
O    -3.106000000     3.932000000    -0.655000000
O    -4.159000000     2.387000000    -1.609000000
