14
-89.89056
C     0.839000000    -1.445000000     2.086000000
H     0.547000000    -2.142000000     2.868000000
C    -0.073000000    -1.140000000     1.054000000
H    -1.072000000    -1.564000000     0.986000000
C     0.271000000    -0.221000000     0.098000000
H    -0.459000000     0.115000000    -0.688000000
C     1.469000000     0.485000000     0.237000000
H     1.690000000     1.275000000    -0.477000000
C     2.445000000     0.138000000     1.153000000
H     3.342000000     0.742000000     1.259000000
C     2.100000000    -0.859000000     2.103000000
C     3.138000000    -1.087000000     3.203000000
O     3.891000000    -0.213000000     3.618000000
O     2.904000000    -2.129000000     3.825000000
