14
-84.80958
C     2.208000000    -0.619000000     2.484000000
H     3.165000000    -1.128000000     2.568000000
C     1.188000000    -0.985000000     1.597000000
H     1.409000000    -1.908000000     1.066000000
C     0.050000000    -0.273000000     1.337000000
H    -0.675000000    -0.673000000     0.679000000
C    -0.206000000     0.849000000     2.046000000
H    -1.065000000     1.499000000     1.901000000
C     0.717000000     1.239000000     3.058000000
H     0.563000000     2.125000000     3.669000000
C     1.922000000     0.520000000     3.281000000
C     2.847000000     1.005000000     4.350000000
O     2.674000000     2.031000000     4.991000000
O     3.863000000     0.383000000     4.639000000
