14
-86.95828
C     0.429000000    -0.839000000     2.493000000
H     0.193000000    -1.152000000     3.507000000
C    -0.589000000    -0.240000000     1.687000000
H    -1.517000000     0.064000000     2.164000000
C    -0.305000000     0.167000000     0.386000000
H    -1.037000000     0.731000000    -0.174000000
C     0.971000000    -0.020000000    -0.167000000
H     1.200000000     0.282000000    -1.186000000
C     1.894000000    -0.780000000     0.541000000
H     2.919000000    -0.935000000     0.215000000
C     1.593000000    -1.186000000     1.860000000
C     2.672000000    -1.948000000     2.562000000
O     3.665000000    -2.404000000     2.011000000
O     2.739000000    -1.823000000     3.814000000
