14
-86.46557
C     0.596000000    -1.971000000     2.719000000
H     0.199000000    -2.447000000     3.612000000
C    -0.166000000    -1.276000000     1.798000000
H    -1.251000000    -1.226000000     1.856000000
C     0.345000000    -0.503000000     0.763000000
H    -0.237000000     0.158000000     0.069000000
C     1.737000000    -0.371000000     0.657000000
H     2.293000000     0.200000000    -0.082000000
C     2.552000000    -1.031000000     1.596000000
H     3.587000000    -0.702000000     1.630000000
C     2.037000000    -1.773000000     2.640000000
C     2.965000000    -2.313000000     3.771000000
O     4.181000000    -2.290000000     3.692000000
O     2.394000000    -2.749000000     4.739000000
