14
-91.39091
C     0.698000000    -1.907000000     2.092000000
H     0.800000000    -2.441000000     3.033000000
C    -0.495000000    -1.268000000     1.850000000
H    -1.353000000    -1.494000000     2.478000000
C    -0.701000000    -0.597000000     0.672000000
H    -1.716000000    -0.148000000     0.490000000
C     0.336000000    -0.500000000    -0.264000000
H     0.128000000     0.020000000    -1.196000000
C     1.577000000    -1.047000000     0.006000000
H     2.450000000    -0.912000000    -0.628000000
C     1.729000000    -1.802000000     1.208000000
C     3.037000000    -2.524000000     1.405000000
O     3.833000000    -2.482000000     0.465000000
O     3.390000000    -2.970000000     2.505000000
