14
-78.04631
C     2.094000000    -2.389000000     0.629000000
H     2.302000000    -3.346000000     1.101000000
C     0.748000000    -1.898000000     0.763000000
H    -0.018000000    -2.456000000     1.294000000
C     0.440000000    -0.663000000     0.144000000
H    -0.536000000    -0.182000000     0.309000000
C     1.403000000     0.052000000    -0.700000000
H     1.232000000     1.011000000    -1.183000000
C     2.684000000    -0.562000000    -0.751000000
H     3.453000000    -0.045000000    -1.320000000
C     3.062000000    -1.795000000    -0.143000000
C     4.441000000    -2.399000000    -0.064000000
O     5.357000000    -1.680000000    -0.401000000
O     4.718000000    -3.395000000     0.536000000
