14
-84.31641
C     0.829000000    -1.764000000     1.508000000
H     0.594000000    -2.537000000     2.235000000
C    -0.158000000    -0.992000000     0.790000000
H    -1.203000000    -1.168000000     1.031000000
C     0.213000000    -0.114000000    -0.254000000
H    -0.441000000     0.423000000    -0.968000000
C     1.570000000     0.110000000    -0.484000000
H     1.774000000     0.867000000    -1.237000000
C     2.540000000    -0.508000000     0.279000000
H     3.570000000    -0.171000000     0.194000000
C     2.194000000    -1.426000000     1.297000000
C     3.319000000    -2.148000000     2.116000000
O     4.446000000    -1.720000000     2.063000000
O     3.147000000    -3.111000000     2.867000000
