14
-78.96773
C     1.235000000    -1.484000000     1.013000000
H     0.709000000    -2.353000000     1.400000000
C     0.505000000    -0.501000000     0.443000000
H    -0.570000000    -0.563000000     0.597000000
C     1.059000000     0.495000000    -0.244000000
H     0.479000000     1.246000000    -0.691000000
C     2.449000000     0.661000000    -0.250000000
H     2.844000000     1.546000000    -0.743000000
C     3.290000000    -0.307000000     0.342000000
H     4.373000000    -0.359000000     0.417000000
C     2.617000000    -1.412000000     0.921000000
C     3.443000000    -2.601000000     1.340000000
O     4.513000000    -2.814000000     0.808000000
O     3.229000000    -3.172000000     2.395000000
