14
-78.35448
C    -2.582000000    -0.186000000    -0.528000000
H    -3.646000000    -0.398000000    -0.470000000
C    -1.673000000    -1.102000000    -0.020000000
H    -2.167000000    -2.031000000     0.252000000
C    -0.319000000    -0.769000000    -0.014000000
H     0.459000000    -1.462000000     0.399000000
C     0.111000000     0.434000000    -0.483000000
H     1.096000000     0.878000000    -0.368000000
C    -0.817000000     1.340000000    -0.960000000
H    -0.594000000     2.347000000    -1.302000000
C    -2.197000000     1.041000000    -0.978000000
C    -3.249000000     1.913000000    -1.605000000
O    -2.920000000     2.967000000    -2.064000000
O    -4.444000000     1.753000000    -1.439000000
