14
-79.92927
C     0.683000000    -1.946000000     1.246000000
H     0.333000000    -2.714000000     1.930000000
C    -0.209000000    -0.944000000     0.842000000
H    -1.267000000    -0.883000000     1.086000000
C     0.243000000     0.020000000    -0.039000000
H    -0.394000000     0.731000000    -0.399000000
C     1.497000000    -0.051000000    -0.640000000
H     1.751000000     0.680000000    -1.403000000
C     2.383000000    -1.082000000    -0.295000000
H     3.386000000    -1.037000000    -0.711000000
C     1.987000000    -1.993000000     0.821000000
C     2.902000000    -2.989000000     1.384000000
O     3.997000000    -3.088000000     0.904000000
O     2.643000000    -3.504000000     2.460000000
