14
-85.28170
C     0.527000000    -1.105000000     1.319000000
H     0.096000000    -1.622000000     2.172000000
C    -0.400000000    -0.502000000     0.436000000
H    -1.460000000    -0.737000000     0.493000000
C    -0.008000000     0.377000000    -0.540000000
H    -0.798000000     0.760000000    -1.152000000
C     1.317000000     0.755000000    -0.724000000
H     1.698000000     1.435000000    -1.481000000
C     2.201000000     0.140000000     0.147000000
H     3.261000000     0.357000000     0.049000000
C     1.871000000    -0.691000000     1.245000000
C     2.932000000    -1.220000000     2.184000000
O     4.058000000    -1.504000000     1.856000000
O     2.566000000    -1.415000000     3.318000000
