14
-68.80064
C     1.606000000    -1.181000000     2.075000000
H     1.903000000    -1.686000000     2.991000000
C     0.288000000    -1.249000000     1.636000000
H    -0.357000000    -1.985000000     2.109000000
C    -0.214000000    -0.630000000     0.518000000
H    -1.311000000    -0.700000000     0.290000000
C     0.681000000     0.185000000    -0.243000000
H     0.309000000     0.701000000    -1.124000000
C     2.044000000     0.286000000     0.179000000
H     2.705000000     0.867000000    -0.460000000
C     2.525000000    -0.339000000     1.353000000
C     3.899000000    -0.195000000     1.880000000
O     4.604000000     0.613000000     1.391000000
O     4.458000000    -1.101000000     2.407000000
