14
-83.06749
C     0.858000000    -0.548000000     2.229000000
H     0.466000000    -0.859000000     3.194000000
C     0.050000000    -0.576000000     1.042000000
H    -0.866000000    -1.157000000     1.115000000
C     0.577000000    -0.052000000    -0.115000000
H     0.015000000    -0.158000000    -1.046000000
C     1.851000000     0.551000000    -0.129000000
H     2.172000000     1.064000000    -1.032000000
C     2.555000000     0.674000000     1.079000000
H     3.476000000     1.240000000     1.191000000
C     2.063000000     0.008000000     2.215000000
C     2.900000000     0.089000000     3.507000000
O     4.123000000     0.398000000     3.476000000
O     2.481000000    -0.636000000     4.385000000
