14
-87.23290
C     0.753000000    -0.259000000     2.470000000
H     0.435000000    -0.624000000     3.443000000
C    -0.183000000    -0.347000000     1.473000000
H    -1.147000000    -0.693000000     1.837000000
C     0.146000000    -0.082000000     0.133000000
H    -0.650000000    -0.202000000    -0.579000000
C     1.447000000     0.373000000    -0.172000000
H     1.657000000     0.706000000    -1.185000000
C     2.413000000     0.406000000     0.795000000
H     3.446000000     0.530000000     0.479000000
C     2.081000000     0.107000000     2.112000000
C     3.102000000     0.199000000     3.189000000
O     4.078000000     0.860000000     2.926000000
O     3.054000000    -0.501000000     4.222000000
