14
-92.19240
C     1.483000000    -0.330000000     2.326000000
H     1.682000000    -0.685000000     3.333000000
C     0.218000000    -0.626000000     1.766000000
H    -0.562000000    -0.981000000     2.434000000
C    -0.111000000    -0.226000000     0.491000000
H    -1.135000000    -0.384000000     0.093000000
C     0.870000000     0.405000000    -0.306000000
H     0.695000000     0.806000000    -1.301000000
C     2.155000000     0.600000000     0.208000000
H     2.919000000     0.927000000    -0.493000000
C     2.472000000     0.243000000     1.514000000
C     3.855000000     0.421000000     2.026000000
O     4.667000000     0.862000000     1.217000000
O     4.188000000    -0.106000000     3.103000000
