14
-87.03756
C     0.944000000    -0.736000000     2.441000000
H     0.813000000    -1.317000000     3.350000000
C    -0.096000000    -0.425000000     1.533000000
H    -1.131000000    -0.634000000     1.791000000
C     0.194000000     0.062000000     0.268000000
H    -0.631000000     0.261000000    -0.421000000
C     1.487000000     0.448000000    -0.058000000
H     1.728000000     0.773000000    -1.067000000
C     2.520000000     0.298000000     0.880000000
H     3.446000000     0.746000000     0.529000000
C     2.234000000    -0.232000000     2.160000000
C     3.373000000    -0.432000000     3.141000000
O     4.403000000     0.092000000     2.962000000
O     3.187000000    -1.295000000     4.026000000
