14
-86.54922
C    -2.238000000     0.479000000    -0.973000000
H    -3.130000000    -0.054000000    -1.291000000
C    -1.328000000    -0.272000000    -0.222000000
H    -1.577000000    -1.276000000     0.111000000
C    -0.065000000     0.191000000     0.036000000
H     0.629000000    -0.429000000     0.607000000
C     0.253000000     1.462000000    -0.461000000
H     1.271000000     1.839000000    -0.404000000
C    -0.697000000     2.294000000    -1.020000000
H    -0.491000000     3.333000000    -1.267000000
C    -1.958000000     1.782000000    -1.298000000
C    -3.002000000     2.593000000    -1.994000000
O    -2.899000000     3.815000000    -2.230000000
O    -4.106000000     2.114000000    -2.117000000
