14
-84.32449
C     0.152000000    -1.103000000     1.705000000
H    -0.330000000    -1.711000000     2.466000000
C    -0.517000000    -0.849000000     0.473000000
H    -1.503000000    -1.292000000     0.359000000
C    -0.002000000    -0.052000000    -0.533000000
H    -0.460000000     0.059000000    -1.487000000
C     1.254000000     0.528000000    -0.261000000
H     1.681000000     1.160000000    -1.036000000
C     1.939000000     0.350000000     0.975000000
H     2.859000000     0.887000000     1.192000000
C     1.340000000    -0.398000000     1.985000000
C     2.118000000    -0.804000000     3.221000000
O     3.328000000    -0.656000000     3.142000000
O     1.657000000    -1.412000000     4.118000000
