14
-88.67663
C    -2.062000000     0.281000000    -1.184000000
H    -2.839000000    -0.428000000    -1.460000000
C    -0.944000000    -0.211000000    -0.520000000
H    -0.735000000    -1.238000000    -0.232000000
C     0.043000000     0.724000000    -0.202000000
H     0.899000000     0.467000000     0.351000000
C    -0.070000000     2.105000000    -0.441000000
H     0.697000000     2.790000000    -0.088000000
C    -1.214000000     2.514000000    -1.163000000
H    -1.254000000     3.571000000    -1.417000000
C    -2.204000000     1.643000000    -1.501000000
C    -3.450000000     2.112000000    -2.234000000
O    -3.583000000     3.274000000    -2.598000000
O    -4.383000000     1.359000000    -2.361000000
