14
-86.41915
C     1.194000000    -1.037000000     1.850000000
H     1.290000000    -1.583000000     2.785000000
C    -0.073000000    -0.786000000     1.311000000
H    -0.975000000    -1.261000000     1.687000000
C    -0.095000000     0.041000000     0.194000000
H    -1.122000000     0.268000000    -0.215000000
C     1.008000000     0.655000000    -0.318000000
H     0.910000000     1.329000000    -1.165000000
C     2.288000000     0.439000000     0.256000000
H     3.192000000     0.864000000    -0.173000000
C     2.403000000    -0.483000000     1.326000000
C     3.664000000    -0.769000000     2.014000000
O     4.658000000    -0.051000000     1.720000000
O     3.797000000    -1.766000000     2.641000000
