14
-89.79539
C     0.618000000    -0.987000000     2.483000000
H     0.598000000    -1.280000000     3.530000000
C    -0.537000000    -0.877000000     1.691000000
H    -1.508000000    -1.245000000     2.012000000
C    -0.454000000    -0.374000000     0.410000000
H    -1.370000000    -0.379000000    -0.163000000
C     0.803000000    -0.004000000    -0.089000000
H     0.887000000     0.314000000    -1.125000000
C     1.949000000    -0.041000000     0.708000000
H     2.862000000     0.340000000     0.258000000
C     1.878000000    -0.524000000     2.053000000
C     3.088000000    -0.509000000     2.917000000
O     4.098000000     0.133000000     2.581000000
O     3.123000000    -1.098000000     3.973000000
