14
-81.39518
C     1.317000000    -1.053000000     1.607000000
H     1.204000000    -1.841000000     2.347000000
C     0.169000000    -0.492000000     0.979000000
H    -0.816000000    -0.912000000     1.161000000
C     0.257000000     0.496000000     0.059000000
H    -0.672000000     0.763000000    -0.394000000
C     1.501000000     1.109000000    -0.199000000
H     1.644000000     1.741000000    -1.072000000
C     2.658000000     0.568000000     0.380000000
H     3.619000000     0.836000000    -0.052000000
C     2.611000000    -0.559000000     1.274000000
C     3.895000000    -1.177000000     1.863000000
O     4.896000000    -0.515000000     1.752000000
O     3.928000000    -2.134000000     2.626000000
