14
-89.86425
C     0.893000000    -1.080000000     1.726000000
H     0.983000000    -1.811000000     2.526000000
C    -0.347000000    -0.853000000     1.213000000
H    -1.182000000    -1.320000000     1.729000000
C    -0.450000000     0.138000000     0.268000000
H    -1.480000000     0.370000000    -0.036000000
C     0.696000000     0.697000000    -0.330000000
H     0.497000000     1.351000000    -1.175000000
C     1.944000000     0.466000000     0.120000000
H     2.831000000     0.902000000    -0.332000000
C     2.041000000    -0.489000000     1.180000000
C     3.445000000    -0.870000000     1.627000000
O     4.386000000    -0.354000000     1.032000000
O     3.586000000    -1.583000000     2.645000000
