14
-87.15785
C     0.625000000    -0.548000000     1.901000000
H     0.328000000    -1.215000000     2.706000000
C    -0.218000000    -0.384000000     0.831000000
H    -1.127000000    -0.972000000     0.738000000
C     0.211000000     0.455000000    -0.254000000
H    -0.459000000     0.491000000    -1.094000000
C     1.400000000     1.130000000    -0.229000000
H     1.709000000     1.807000000    -1.021000000
C     2.255000000     0.995000000     0.891000000
H     3.197000000     1.535000000     0.843000000
C     1.819000000     0.172000000     1.967000000
C     2.756000000    -0.135000000     3.130000000
O     3.841000000     0.349000000     3.147000000
O     2.488000000    -1.108000000     3.832000000
