14
-88.92527
C     0.767000000    -1.470000000     2.316000000
H     0.795000000    -1.883000000     3.321000000
C    -0.422000000    -1.105000000     1.659000000
H    -1.375000000    -1.387000000     2.099000000
C    -0.357000000    -0.326000000     0.509000000
H    -1.310000000    -0.042000000     0.058000000
C     0.900000000    -0.072000000    -0.024000000
H     0.907000000     0.558000000    -0.910000000
C     2.076000000    -0.332000000     0.606000000
H     3.036000000    -0.072000000     0.167000000
C     2.016000000    -1.070000000     1.807000000
C     3.276000000    -1.268000000     2.563000000
O     4.349000000    -1.167000000     1.951000000
O     3.271000000    -1.612000000     3.719000000
