14
-83.48683
C    -2.464000000    -0.004000000    -0.854000000
H    -3.490000000    -0.266000000    -1.098000000
C    -1.625000000    -0.901000000    -0.178000000
H    -2.113000000    -1.808000000     0.170000000
C    -0.282000000    -0.693000000     0.030000000
H     0.333000000    -1.461000000     0.550000000
C     0.181000000     0.539000000    -0.246000000
H     1.226000000     0.782000000    -0.074000000
C    -0.615000000     1.452000000    -0.971000000
H    -0.213000000     2.420000000    -1.258000000
C    -1.905000000     1.174000000    -1.273000000
C    -2.761000000     2.170000000    -1.891000000
O    -2.393000000     3.314000000    -1.849000000
O    -3.831000000     1.865000000    -2.426000000
