14
-86.36199
C     0.672000000    -1.432000000     1.244000000
H     0.937000000    -2.195000000     1.972000000
C    -0.664000000    -1.438000000     0.759000000
H    -1.337000000    -2.268000000     0.959000000
C    -1.041000000    -0.403000000    -0.114000000
H    -2.064000000    -0.348000000    -0.417000000
C    -0.146000000     0.506000000    -0.585000000
H    -0.561000000     1.172000000    -1.337000000
C     1.151000000     0.563000000    -0.149000000
H     1.794000000     1.364000000    -0.505000000
C     1.566000000    -0.429000000     0.823000000
C     2.978000000    -0.473000000     1.465000000
O     3.797000000     0.393000000     1.292000000
O     3.221000000    -1.352000000     2.288000000
