14
-91.35952
C     0.757000000    -2.310000000     1.201000000
H     0.939000000    -3.232000000     1.749000000
C    -0.497000000    -1.716000000     1.061000000
H    -1.322000000    -2.101000000     1.653000000
C    -0.554000000    -0.553000000     0.224000000
H    -1.499000000    -0.024000000     0.035000000
C     0.592000000    -0.071000000    -0.417000000
H     0.466000000     0.800000000    -1.055000000
C     1.851000000    -0.652000000    -0.221000000
H     2.708000000    -0.116000000    -0.620000000
C     1.923000000    -1.735000000     0.584000000
C     3.263000000    -2.313000000     0.997000000
O     4.238000000    -2.062000000     0.318000000
O     3.361000000    -3.045000000     2.007000000
