14
-89.12782
C     1.133000000    -0.422000000     2.266000000
H     0.698000000    -0.944000000     3.115000000
C     0.228000000    -0.130000000     1.186000000
H    -0.812000000    -0.395000000     1.362000000
C     0.720000000     0.418000000     0.058000000
H     0.094000000     0.593000000    -0.813000000
C     2.090000000     0.811000000    -0.013000000
H     2.497000000     1.375000000    -0.849000000
C     2.950000000     0.506000000     0.980000000
H     4.019000000     0.653000000     0.847000000
C     2.500000000    -0.167000000     2.122000000
C     3.668000000    -0.481000000     3.104000000
O     4.826000000    -0.350000000     2.703000000
O     3.427000000    -0.710000000     4.272000000
