14
-89.65196
C     0.781000000    -1.818000000     1.048000000
H     0.669000000    -2.796000000     1.509000000
C    -0.379000000    -1.341000000     0.488000000
H    -1.357000000    -1.810000000     0.563000000
C    -0.448000000    -0.009000000     0.000000000
H    -1.358000000     0.315000000    -0.405000000
C     0.739000000     0.741000000     0.068000000
H     0.768000000     1.715000000    -0.414000000
C     1.913000000     0.221000000     0.693000000
H     2.774000000     0.882000000     0.760000000
C     1.934000000    -1.053000000     1.167000000
C     3.259000000    -1.691000000     1.638000000
O     4.330000000    -1.036000000     1.644000000
O     3.233000000    -2.847000000     1.992000000
