14
-88.87397
C     0.925000000    -2.211000000     0.760000000
H     0.795000000    -3.201000000     1.190000000
C    -0.166000000    -1.514000000     0.291000000
H    -1.174000000    -1.922000000     0.300000000
C    -0.039000000    -0.227000000    -0.195000000
H    -0.877000000     0.345000000    -0.523000000
C     1.251000000     0.373000000    -0.301000000
H     1.327000000     1.439000000    -0.502000000
C     2.373000000    -0.393000000     0.058000000
H     3.384000000    -0.003000000    -0.028000000
C     2.187000000    -1.664000000     0.629000000
C     3.401000000    -2.419000000     1.241000000
O     4.528000000    -1.968000000     1.231000000
O     3.207000000    -3.439000000     1.851000000
