14
-78.54950
C     0.843000000    -1.757000000     1.090000000
H     0.983000000    -2.635000000     1.715000000
C    -0.427000000    -1.432000000     0.580000000
H    -1.211000000    -2.175000000     0.698000000
C    -0.699000000    -0.239000000    -0.102000000
H    -1.625000000    -0.103000000    -0.502000000
C     0.301000000     0.688000000    -0.172000000
H    -0.036000000     1.626000000    -0.606000000
C     1.608000000     0.422000000     0.303000000
H     2.351000000     1.207000000     0.181000000
C     1.893000000    -0.810000000     0.949000000
C     3.230000000    -1.100000000     1.735000000
O     4.217000000    -0.458000000     1.515000000
O     3.315000000    -2.048000000     2.419000000
