14
-90.42873
C     0.594000000    -1.403000000     1.390000000
H     0.118000000    -2.352000000     1.623000000
C    -0.091000000    -0.479000000     0.623000000
H    -1.041000000    -0.825000000     0.223000000
C     0.546000000     0.682000000     0.151000000
H     0.026000000     1.365000000    -0.599000000
C     1.855000000     0.971000000     0.545000000
H     2.358000000     1.897000000     0.280000000
C     2.603000000    -0.035000000     1.226000000
H     3.655000000     0.152000000     1.424000000
C     1.935000000    -1.191000000     1.662000000
C     2.675000000    -2.266000000     2.361000000
O     3.830000000    -1.956000000     2.645000000
O     2.178000000    -3.365000000     2.556000000
