14
-82.00243
C     1.162000000    -2.552000000     1.029000000
H     0.939000000    -3.608000000     1.159000000
C     0.154000000    -1.737000000     0.513000000
H    -0.783000000    -2.185000000     0.190000000
C     0.421000000    -0.411000000     0.253000000
H    -0.379000000     0.288000000    -0.068000000
C     1.641000000     0.124000000     0.469000000
H     1.855000000     1.177000000     0.304000000
C     2.618000000    -0.713000000     0.929000000
H     3.618000000    -0.345000000     1.143000000
C     2.443000000    -2.020000000     1.271000000
C     3.635000000    -2.765000000     1.882000000
O     4.753000000    -2.434000000     1.711000000
O     3.400000000    -3.893000000     2.335000000
