14
-87.34449
C     0.988000000    -2.439000000     1.454000000
H     0.815000000    -3.478000000     1.721000000
C    -0.095000000    -1.588000000     1.427000000
H    -1.064000000    -1.990000000     1.711000000
C     0.050000000    -0.282000000     0.949000000
H    -0.696000000     0.394000000     0.987000000
C     1.254000000     0.150000000     0.562000000
H     1.334000000     1.205000000     0.314000000
C     2.360000000    -0.682000000     0.547000000
H     3.297000000    -0.261000000     0.190000000
C     2.266000000    -2.010000000     1.050000000
C     3.417000000    -2.973000000     1.033000000
O     4.443000000    -2.708000000     0.383000000
O     3.269000000    -4.065000000     1.539000000
