14
-81.31044
C     0.673000000    -2.405000000     1.151000000
H     0.298000000    -3.377000000     1.460000000
C    -0.177000000    -1.300000000     1.209000000
H    -1.178000000    -1.388000000     1.624000000
C     0.308000000    -0.113000000     0.679000000
H    -0.493000000     0.585000000     0.591000000
C     1.626000000     0.004000000     0.202000000
H     1.934000000     0.916000000    -0.304000000
C     2.443000000    -1.135000000     0.187000000
H     3.494000000    -1.085000000    -0.084000000
C     2.002000000    -2.300000000     0.684000000
C     3.003000000    -3.477000000     0.807000000
O     4.228000000    -3.354000000     0.541000000
O     2.716000000    -4.449000000     1.441000000
