14
-84.64105
C    -2.131000000     0.721000000    -1.109000000
H    -2.991000000     0.268000000    -1.595000000
C    -1.223000000    -0.065000000    -0.383000000
H    -1.344000000    -1.145000000    -0.395000000
C    -0.150000000     0.518000000     0.243000000
H     0.677000000    -0.018000000     0.819000000
C     0.136000000     1.849000000    -0.028000000
H     0.979000000     2.305000000     0.486000000
C    -0.793000000     2.659000000    -0.711000000
H    -0.433000000     3.663000000    -0.922000000
C    -1.953000000     2.083000000    -1.270000000
C    -2.987000000     2.851000000    -2.046000000
O    -2.791000000     4.004000000    -2.318000000
O    -3.957000000     2.296000000    -2.510000000
