14
-87.29086
C     0.693000000    -2.181000000     1.630000000
H     0.699000000    -2.751000000     2.556000000
C    -0.055000000    -1.052000000     1.682000000
H    -0.665000000    -0.805000000     2.547000000
C    -0.156000000    -0.336000000     0.535000000
H    -0.812000000     0.528000000     0.577000000
C     0.403000000    -0.734000000    -0.679000000
H     0.198000000    -0.201000000    -1.604000000
C     1.179000000    -1.880000000    -0.699000000
H     1.613000000    -2.150000000    -1.658000000
C     1.351000000    -2.623000000     0.439000000
C     2.211000000    -3.868000000     0.477000000
O     2.983000000    -4.104000000    -0.421000000
O     2.008000000    -4.606000000     1.409000000
