14
-69.40507
C     0.695000000    -1.541000000     1.601000000
H     0.821000000    -1.942000000     2.604000000
C    -0.136000000    -0.389000000     1.418000000
H    -0.716000000     0.053000000     2.224000000
C    -0.339000000     0.045000000     0.131000000
H    -1.205000000     0.694000000    -0.079000000
C     0.313000000    -0.541000000    -0.880000000
H     0.033000000    -0.156000000    -1.857000000
C     1.109000000    -1.652000000    -0.744000000
H     1.515000000    -2.310000000    -1.508000000
C     1.326000000    -2.190000000     0.488000000
C     2.127000000    -3.469000000     0.663000000
O     3.166000000    -3.581000000     0.058000000
O     1.980000000    -4.233000000     1.553000000
