14
-89.14047
C     0.393000000    -2.022000000     1.243000000
H     0.198000000    -2.364000000     2.256000000
C    -0.072000000    -0.787000000     0.787000000
H    -0.682000000    -0.228000000     1.492000000
C     0.351000000    -0.296000000    -0.434000000
H     0.071000000     0.679000000    -0.844000000
C     1.061000000    -1.196000000    -1.252000000
H     1.458000000    -0.797000000    -2.182000000
C     1.406000000    -2.509000000    -0.837000000
H     1.881000000    -3.248000000    -1.478000000
C     1.154000000    -2.908000000     0.425000000
C     1.819000000    -4.175000000     0.958000000
O     2.610000000    -4.818000000     0.333000000
O     1.478000000    -4.477000000     2.134000000
