14
-84.54922
C     2.276000000    -0.825000000     1.367000000
H     2.940000000    -1.100000000     2.182000000
C     1.021000000    -0.306000000     1.629000000
H     0.622000000    -0.161000000     2.629000000
C     0.172000000     0.101000000     0.607000000
H    -0.842000000     0.503000000     0.757000000
C     0.485000000    -0.100000000    -0.702000000
H    -0.183000000     0.130000000    -1.528000000
C     1.706000000    -0.673000000    -0.977000000
H     1.969000000    -0.769000000    -2.027000000
C     2.574000000    -1.112000000     0.080000000
C     3.877000000    -1.752000000    -0.278000000
O     4.087000000    -2.043000000    -1.414000000
O     4.622000000    -2.127000000     0.620000000
