14
-80.93724
C     1.575000000    -0.411000000     1.496000000
H     1.879000000    -0.277000000     2.531000000
C     0.386000000     0.066000000     1.036000000
H    -0.206000000     0.614000000     1.766000000
C    -0.088000000    -0.044000000    -0.233000000
H    -1.058000000     0.345000000    -0.578000000
C     0.871000000    -0.463000000    -1.160000000
H     0.509000000    -0.605000000    -2.175000000
C     2.141000000    -0.929000000    -0.776000000
H     2.890000000    -1.256000000    -1.493000000
C     2.472000000    -0.914000000     0.586000000
C     3.830000000    -1.395000000     1.018000000
O     4.749000000    -1.511000000     0.200000000
O     4.063000000    -1.723000000     2.127000000
