14
-86.70327
C     1.360000000    -0.677000000     1.309000000
H     1.904000000    -1.105000000     2.147000000
C     0.293000000     0.199000000     1.373000000
H     0.122000000     0.625000000     2.358000000
C    -0.400000000     0.543000000     0.233000000
H    -1.315000000     1.137000000     0.340000000
C    -0.008000000     0.072000000    -1.039000000
H    -0.650000000     0.240000000    -1.900000000
C     1.058000000    -0.781000000    -1.112000000
H     1.472000000    -1.239000000    -2.006000000
C     1.698000000    -1.211000000     0.055000000
C     2.800000000    -2.293000000     0.096000000
O     3.086000000    -2.825000000    -0.961000000
O     3.104000000    -2.822000000     1.140000000
