14
-85.10781
C     1.117000000    -2.469000000     1.240000000
H     1.183000000    -3.517000000     1.520000000
C    -0.137000000    -1.835000000     0.832000000
H    -1.054000000    -2.411000000     0.929000000
C    -0.165000000    -0.538000000     0.382000000
H    -1.106000000    -0.148000000    -0.103000000
C     0.990000000     0.187000000     0.219000000
H     1.017000000     1.191000000    -0.196000000
C     2.217000000    -0.410000000     0.587000000
H     3.080000000     0.201000000     0.337000000
C     2.322000000    -1.677000000     1.155000000
C     3.766000000    -2.203000000     1.431000000
O     4.743000000    -1.545000000     1.161000000
O     3.873000000    -3.283000000     1.964000000
