14
-81.06385
C     0.970000000    -1.418000000     1.310000000
H     0.948000000    -2.334000000     1.894000000
C    -0.270000000    -0.948000000     0.796000000
H    -1.170000000    -1.527000000     0.988000000
C    -0.241000000     0.173000000    -0.066000000
H    -1.142000000     0.419000000    -0.652000000
C     0.942000000     0.859000000    -0.256000000
H     1.011000000     1.747000000    -0.880000000
C     2.082000000     0.438000000     0.388000000
H     2.941000000     1.093000000     0.271000000
C     2.210000000    -0.788000000     1.090000000
C     3.538000000    -1.300000000     1.657000000
O     4.574000000    -0.933000000     1.225000000
O     3.587000000    -2.062000000     2.597000000
