14
-86.15360
C     1.439000000    -1.609000000     1.769000000
H     1.315000000    -1.705000000     2.844000000
C     0.693000000    -0.639000000     1.053000000
H    -0.019000000    -0.020000000     1.593000000
C     0.959000000    -0.416000000    -0.287000000
H     0.456000000     0.408000000    -0.774000000
C     1.847000000    -1.256000000    -0.926000000
H     2.044000000    -1.095000000    -1.982000000
C     2.535000000    -2.280000000    -0.272000000
H     3.171000000    -2.922000000    -0.876000000
C     2.370000000    -2.443000000     1.119000000
C     3.169000000    -3.531000000     1.815000000
O     3.925000000    -4.268000000     1.237000000
O     3.222000000    -3.570000000     3.024000000
