14
-88.23783
C     2.296000000    -2.718000000     0.437000000
H     2.277000000    -3.742000000     0.802000000
C     1.104000000    -1.944000000     0.389000000
H     0.137000000    -2.404000000     0.577000000
C     1.145000000    -0.626000000    -0.083000000
H     0.236000000    -0.034000000    -0.227000000
C     2.331000000    -0.153000000    -0.588000000
H     2.438000000     0.823000000    -1.053000000
C     3.550000000    -0.899000000    -0.448000000
H     4.453000000    -0.404000000    -0.796000000
C     3.512000000    -2.182000000     0.033000000
C     4.697000000    -3.085000000     0.158000000
O     5.800000000    -2.594000000     0.046000000
O     4.598000000    -4.231000000     0.580000000
