14
-82.15286
C     1.397000000    -2.327000000     0.729000000
H     1.423000000    -3.214000000     1.356000000
C     0.459000000    -1.273000000     0.851000000
H    -0.282000000    -1.198000000     1.643000000
C     0.362000000    -0.234000000    -0.086000000
H    -0.341000000     0.598000000     0.073000000
C     1.463000000    -0.122000000    -0.945000000
H     1.310000000     0.715000000    -1.622000000
C     2.385000000    -1.157000000    -1.114000000
H     3.207000000    -0.996000000    -1.807000000
C     2.452000000    -2.264000000    -0.253000000
C     3.500000000    -3.328000000    -0.426000000
O     4.425000000    -3.222000000    -1.182000000
O     3.509000000    -4.235000000     0.425000000
