14
-91.93081
C     0.902000000    -1.739000000     0.539000000
H     0.711000000    -2.642000000     1.114000000
C    -0.119000000    -0.774000000     0.529000000
H    -1.035000000    -0.917000000     1.096000000
C     0.115000000     0.417000000    -0.244000000
H    -0.654000000     1.148000000    -0.243000000
C     1.285000000     0.582000000    -0.896000000
H     1.385000000     1.490000000    -1.484000000
C     2.343000000    -0.357000000    -0.808000000
H     3.228000000    -0.220000000    -1.425000000
C     2.120000000    -1.557000000    -0.136000000
C     3.124000000    -2.702000000    -0.192000000
O     4.137000000    -2.477000000    -0.869000000
O     3.055000000    -3.712000000     0.506000000
