14
-76.28546
C     1.460000000    -2.810000000     1.124000000
H     1.860000000    -3.678000000     1.641000000
C     0.400000000    -2.018000000     1.606000000
H    -0.033000000    -2.411000000     2.523000000
C    -0.134000000    -1.087000000     0.687000000
H    -1.051000000    -0.651000000     1.011000000
C     0.415000000    -0.813000000    -0.528000000
H    -0.043000000    -0.030000000    -1.127000000
C     1.519000000    -1.554000000    -0.925000000
H     1.878000000    -1.391000000    -1.938000000
C     2.058000000    -2.582000000    -0.137000000
C     3.190000000    -3.454000000    -0.642000000
O     3.670000000    -3.209000000    -1.689000000
O     3.593000000    -4.376000000    -0.034000000
