14
-86.07743
C     0.924000000    -2.276000000     0.269000000
H     0.642000000    -3.222000000     0.723000000
C    -0.001000000    -1.238000000     0.351000000
H    -0.927000000    -1.489000000     0.861000000
C     0.138000000     0.019000000    -0.200000000
H    -0.526000000     0.870000000    -0.276000000
C     1.363000000     0.279000000    -0.865000000
H     1.560000000     1.247000000    -1.319000000
C     2.292000000    -0.776000000    -1.016000000
H     3.192000000    -0.626000000    -1.607000000
C     2.078000000    -2.029000000    -0.488000000
C     3.119000000    -3.093000000    -0.641000000
O     4.260000000    -2.769000000    -0.850000000
O     2.787000000    -4.193000000    -0.273000000
