14
-78.87380
C     1.884000000    -1.064000000     0.696000000
H     2.555000000    -1.829000000     1.080000000
C     0.527000000    -1.275000000     0.717000000
H     0.042000000    -2.158000000     1.127000000
C    -0.342000000    -0.315000000     0.307000000
H    -1.489000000    -0.470000000     0.393000000
C     0.134000000     0.830000000    -0.372000000
H    -0.611000000     1.513000000    -0.772000000
C     1.476000000     1.025000000    -0.439000000
H     1.764000000     1.961000000    -0.910000000
C     2.405000000     0.121000000     0.092000000
C     3.888000000     0.402000000     0.068000000
O     4.478000000     1.252000000    -0.553000000
O     4.660000000    -0.492000000     0.503000000
