14
-88.47469
C     0.755000000    -2.222000000    -0.128000000
H     0.568000000    -3.209000000     0.288000000
C    -0.026000000    -1.146000000     0.342000000
H    -0.730000000    -1.217000000     1.166000000
C     0.064000000     0.127000000    -0.252000000
H    -0.553000000     0.946000000     0.182000000
C     0.898000000     0.299000000    -1.341000000
H     1.047000000     1.221000000    -1.897000000
C     1.602000000    -0.773000000    -1.784000000
H     2.317000000    -0.601000000    -2.584000000
C     1.575000000    -2.052000000    -1.180000000
C     2.422000000    -3.303000000    -1.525000000
O     3.008000000    -3.257000000    -2.600000000
O     2.640000000    -4.144000000    -0.657000000
