14
-89.43475
C     0.273000000    -1.474000000    -0.499000000
H    -0.054000000    -2.511000000    -0.487000000
C    -0.568000000    -0.480000000    -0.051000000
H    -1.563000000    -0.611000000     0.367000000
C    -0.117000000     0.843000000    -0.175000000
H    -0.724000000     1.721000000     0.137000000
C     1.114000000     1.124000000    -0.697000000
H     1.396000000     2.172000000    -0.758000000
C     1.926000000     0.080000000    -1.154000000
H     2.919000000     0.315000000    -1.526000000
C     1.524000000    -1.255000000    -1.134000000
C     2.438000000    -2.354000000    -1.531000000
O     3.501000000    -1.918000000    -2.000000000
O     2.301000000    -3.514000000    -1.178000000
