14
-81.26093
C     0.616000000    -2.313000000     0.259000000
H     0.324000000    -3.300000000     0.608000000
C    -0.180000000    -1.172000000     0.510000000
H    -1.059000000    -1.247000000     1.144000000
C     0.202000000     0.093000000    -0.062000000
H    -0.467000000     0.981000000     0.179000000
C     1.341000000     0.286000000    -0.826000000
H     1.600000000     1.281000000    -1.177000000
C     2.129000000    -0.876000000    -0.943000000
H     3.059000000    -0.743000000    -1.491000000
C     1.853000000    -2.167000000    -0.500000000
C     2.835000000    -3.278000000    -0.825000000
O     3.731000000    -3.225000000    -1.647000000
O     2.721000000    -4.333000000    -0.249000000
