14
-87.02519
C     2.040000000    -2.522000000     0.631000000
H     2.009000000    -3.262000000     1.427000000
C     0.977000000    -1.547000000     0.643000000
H     0.233000000    -1.590000000     1.435000000
C     0.904000000    -0.517000000    -0.273000000
H     0.100000000     0.202000000    -0.293000000
C     1.741000000    -0.566000000    -1.377000000
H     1.777000000     0.245000000    -2.100000000
C     2.737000000    -1.530000000    -1.420000000
H     3.402000000    -1.558000000    -2.279000000
C     2.914000000    -2.488000000    -0.426000000
C     3.935000000    -3.560000000    -0.538000000
O     4.636000000    -3.735000000    -1.511000000
O     4.039000000    -4.312000000     0.412000000
