14
-85.03031
C     2.418000000    -1.784000000     0.745000000
H     2.939000000    -2.695000000     1.030000000
C     1.054000000    -1.683000000     1.160000000
H     0.590000000    -2.495000000     1.713000000
C     0.250000000    -0.596000000     0.807000000
H    -0.758000000    -0.478000000     1.145000000
C     0.822000000     0.357000000    -0.077000000
H     0.224000000     1.237000000    -0.299000000
C     2.171000000     0.289000000    -0.503000000
H     2.611000000     1.119000000    -1.050000000
C     2.973000000    -0.754000000    -0.017000000
C     4.417000000    -0.877000000    -0.509000000
O     4.925000000    -0.105000000    -1.284000000
O     5.226000000    -1.721000000    -0.054000000
