14
-83.78784
C    -2.141000000     0.458000000     0.144000000
H    -3.228000000     0.485000000     0.133000000
C    -1.461000000    -0.704000000     0.340000000
H    -1.968000000    -1.649000000     0.518000000
C    -0.051000000    -0.714000000     0.286000000
H     0.468000000    -1.575000000     0.454000000
C     0.633000000     0.441000000     0.108000000
H     1.719000000     0.398000000     0.111000000
C    -0.043000000     1.664000000    -0.071000000
H     0.578000000     2.554000000    -0.146000000
C    -1.474000000     1.689000000     0.008000000
C    -2.240000000     2.995000000    -0.255000000
O    -1.776000000     4.090000000    -0.272000000
O    -3.360000000     2.790000000    -0.647000000
