14
-84.24471
C     1.301000000    -1.828000000     0.840000000
H     1.195000000    -2.696000000     1.486000000
C     0.202000000    -1.043000000     0.390000000
H    -0.823000000    -1.298000000     0.647000000
C     0.375000000     0.067000000    -0.435000000
H    -0.422000000     0.702000000    -0.764000000
C     1.613000000     0.386000000    -0.805000000
H     1.781000000     1.264000000    -1.423000000
C     2.717000000    -0.283000000    -0.347000000
H     3.699000000     0.042000000    -0.681000000
C     2.572000000    -1.464000000     0.376000000
C     3.851000000    -2.127000000     0.910000000
O     4.926000000    -1.949000000     0.360000000
O     3.797000000    -3.051000000     1.728000000
