14
-78.85780
C     1.346000000    -1.503000000     1.169000000
H     1.748000000    -2.285000000     1.809000000
C    -0.049000000    -1.430000000     1.015000000
H    -0.722000000    -2.172000000     1.437000000
C    -0.651000000    -0.387000000     0.354000000
H    -1.708000000    -0.404000000     0.180000000
C     0.089000000     0.561000000    -0.338000000
H    -0.578000000     1.236000000    -0.869000000
C     1.491000000     0.415000000    -0.338000000
H     2.101000000     1.029000000    -0.996000000
C     2.118000000    -0.555000000     0.457000000
C     3.604000000    -0.664000000     0.699000000
O     4.274000000    -0.102000000    -0.123000000
O     4.188000000    -1.485000000     1.413000000
