14
-88.63945
C     1.048000000    -1.540000000     0.836000000
H     1.123000000    -2.408000000     1.486000000
C    -0.198000000    -0.891000000     0.718000000
H    -1.113000000    -1.281000000     1.155000000
C    -0.307000000     0.195000000    -0.107000000
H    -1.215000000     0.847000000    -0.102000000
C     0.853000000     0.694000000    -0.765000000
H     0.747000000     1.593000000    -1.366000000
C     2.108000000     0.062000000    -0.655000000
H     3.026000000     0.492000000    -1.046000000
C     2.166000000    -1.041000000     0.141000000
C     3.431000000    -1.861000000     0.284000000
O     4.246000000    -1.781000000    -0.581000000
O     3.390000000    -2.777000000     1.147000000
