14
-79.43084
C     1.606000000    -1.264000000     0.845000000
H     1.830000000    -2.039000000     1.573000000
C     0.271000000    -0.856000000     0.529000000
H    -0.587000000    -1.458000000     0.818000000
C     0.030000000     0.246000000    -0.267000000
H    -0.928000000     0.646000000    -0.395000000
C     1.110000000     1.006000000    -0.733000000
H     0.926000000     1.841000000    -1.404000000
C     2.384000000     0.591000000    -0.494000000
H     3.169000000     1.261000000    -0.836000000
C     2.679000000    -0.527000000     0.300000000
C     4.081000000    -1.042000000     0.552000000
O     5.026000000    -0.283000000     0.544000000
O     4.387000000    -2.187000000     0.697000000
