14
-76.60642
C     2.239000000    -1.067000000     0.655000000
H     2.523000000    -1.805000000     1.401000000
C     0.859000000    -0.931000000     0.287000000
H     0.094000000    -1.631000000     0.610000000
C     0.478000000     0.075000000    -0.551000000
H    -0.590000000     0.211000000    -0.915000000
C     1.388000000     0.938000000    -1.101000000
H     1.110000000     1.806000000    -1.693000000
C     2.724000000     0.774000000    -0.802000000
H     3.465000000     1.467000000    -1.193000000
C     3.147000000    -0.169000000     0.106000000
C     4.598000000    -0.310000000     0.516000000
O     5.552000000     0.220000000    -0.029000000
O     4.938000000    -1.105000000     1.328000000
