14
-82.33557
C     3.830000000    -2.357000000     1.281000000
H     3.891000000    -3.406000000     1.559000000
C     2.588000000    -1.804000000     1.546000000
H     1.742000000    -2.368000000     1.931000000
C     2.434000000    -0.427000000     1.414000000
H     1.519000000     0.000000000     1.660000000
C     3.467000000     0.328000000     0.885000000
H     3.296000000     1.390000000     0.726000000
C     4.692000000    -0.191000000     0.459000000
H     5.477000000     0.483000000     0.127000000
C     4.849000000    -1.594000000     0.701000000
C     6.117000000    -2.322000000     0.352000000
O     7.055000000    -1.738000000    -0.196000000
O     6.244000000    -3.491000000     0.502000000
