14
-90.36444
C     2.256000000    -1.618000000     1.259000000
H     2.347000000    -2.494000000     1.896000000
C     0.952000000    -1.136000000     1.119000000
H     0.128000000    -1.721000000     1.519000000
C     0.746000000     0.045000000     0.355000000
H    -0.248000000     0.417000000     0.270000000
C     1.757000000     0.576000000    -0.400000000
H     1.512000000     1.438000000    -1.015000000
C     3.064000000     0.101000000    -0.264000000
H     3.859000000     0.500000000    -0.889000000
C     3.334000000    -1.011000000     0.602000000
C     4.706000000    -1.494000000     0.793000000
O     5.572000000    -1.170000000    -0.043000000
O     4.885000000    -2.380000000     1.614000000
