14
-87.20365
C     0.509000000    -2.375000000    -0.125000000
H     0.444000000    -3.457000000    -0.046000000
C    -0.611000000    -1.589000000    -0.068000000
H    -1.593000000    -2.045000000     0.023000000
C    -0.560000000    -0.201000000     0.106000000
H    -1.412000000     0.302000000     0.142000000
C     0.701000000     0.420000000     0.044000000
H     0.678000000     1.506000000     0.106000000
C     1.836000000    -0.354000000    -0.120000000
H     2.824000000     0.079000000    -0.254000000
C     1.724000000    -1.766000000    -0.117000000
C     2.970000000    -2.659000000    -0.043000000
O     4.061000000    -2.102000000    -0.041000000
O     2.875000000    -3.859000000    -0.230000000
