14
-78.09562
C     0.401000000    -2.261000000    -0.377000000
H     0.250000000    -3.337000000    -0.346000000
C    -0.597000000    -1.399000000     0.093000000
H    -1.551000000    -1.817000000     0.404000000
C    -0.431000000    -0.031000000     0.048000000
H    -1.200000000     0.669000000     0.361000000
C     0.809000000     0.528000000    -0.306000000
H     1.055000000     1.585000000    -0.362000000
C     1.837000000    -0.351000000    -0.585000000
H     2.804000000     0.089000000    -0.813000000
C     1.670000000    -1.739000000    -0.668000000
C     2.836000000    -2.554000000    -0.991000000
O     3.947000000    -2.132000000    -0.890000000
O     2.749000000    -3.649000000    -1.444000000
