14
-79.54088
C     0.749000000    -2.005000000     0.097000000
H     0.611000000    -3.072000000     0.254000000
C    -0.489000000    -1.308000000     0.356000000
H    -1.425000000    -1.842000000     0.499000000
C    -0.439000000     0.079000000     0.255000000
H    -1.392000000     0.675000000     0.349000000
C     0.801000000     0.707000000    -0.028000000
H     0.842000000     1.790000000    -0.110000000
C     2.024000000     0.061000000    -0.185000000
H     2.885000000     0.701000000    -0.356000000
C     1.986000000    -1.351000000    -0.095000000
C     3.182000000    -2.193000000    -0.225000000
O     4.259000000    -1.624000000    -0.101000000
O     3.180000000    -3.324000000    -0.576000000
