14
-87.75525
C     1.760000000    -2.486000000     0.355000000
H     1.930000000    -3.538000000     0.572000000
C     0.494000000    -1.996000000     0.588000000
H    -0.285000000    -2.605000000     1.041000000
C     0.232000000    -0.657000000     0.372000000
H    -0.776000000    -0.263000000     0.608000000
C     1.221000000     0.115000000    -0.200000000
H     1.039000000     1.167000000    -0.400000000
C     2.480000000    -0.421000000    -0.461000000
H     3.079000000     0.356000000    -0.929000000
C     2.774000000    -1.757000000    -0.252000000
C     4.210000000    -2.370000000    -0.523000000
O     5.107000000    -1.646000000    -0.887000000
O     4.348000000    -3.541000000    -0.320000000
