14
-90.50032
C     0.840000000    -2.295000000    -0.254000000
H     0.989000000    -3.350000000    -0.468000000
C    -0.428000000    -1.840000000     0.053000000
H    -1.214000000    -2.588000000     0.114000000
C    -0.695000000    -0.499000000     0.210000000
H    -1.730000000    -0.102000000     0.162000000
C     0.338000000     0.417000000     0.051000000
H     0.084000000     1.472000000     0.117000000
C     1.660000000    -0.055000000    -0.069000000
H     2.475000000     0.658000000    -0.163000000
C     1.892000000    -1.374000000    -0.373000000
C     3.321000000    -1.795000000    -0.665000000
O     4.256000000    -0.995000000    -0.541000000
O     3.553000000    -3.008000000    -0.809000000
