14
-85.87722
C     0.381000000    -2.016000000    -0.675000000
H     0.439000000    -3.026000000    -1.072000000
C    -0.860000000    -1.685000000    -0.066000000
H    -1.722000000    -2.347000000    -0.085000000
C    -1.004000000    -0.323000000     0.306000000
H    -1.895000000    -0.012000000     0.796000000
C    -0.035000000     0.629000000     0.101000000
H    -0.176000000     1.673000000     0.371000000
C     1.219000000     0.145000000    -0.345000000
H     2.032000000     0.834000000    -0.560000000
C     1.471000000    -1.198000000    -0.687000000
C     2.841000000    -1.700000000    -1.035000000
O     3.727000000    -1.101000000    -1.611000000
O     2.957000000    -2.952000000    -0.820000000
