14
-93.74295
C     0.391000000    -2.219000000    -0.666000000
H     0.354000000    -3.269000000    -0.945000000
C    -0.626000000    -1.719000000     0.193000000
H    -1.439000000    -2.325000000     0.585000000
C    -0.654000000    -0.385000000     0.456000000
H    -1.451000000     0.037000000     1.077000000
C     0.351000000     0.507000000     0.017000000
H     0.323000000     1.538000000     0.361000000
C     1.344000000     0.024000000    -0.849000000
H     2.103000000     0.721000000    -1.194000000
C     1.411000000    -1.384000000    -1.165000000
C     2.434000000    -2.001000000    -2.109000000
O     3.283000000    -1.332000000    -2.677000000
O     2.352000000    -3.252000000    -2.240000000
