14
-82.38531
C     0.191000000    -2.859000000    -0.059000000
H    -0.288000000    -3.802000000     0.191000000
C    -0.460000000    -1.661000000     0.027000000
H    -1.525000000    -1.635000000     0.247000000
C     0.130000000    -0.458000000    -0.401000000
H    -0.498000000     0.486000000    -0.444000000
C     1.471000000    -0.445000000    -0.807000000
H     1.871000000     0.523000000    -1.097000000
C     2.211000000    -1.627000000    -0.802000000
H     3.269000000    -1.474000000    -1.000000000
C     1.586000000    -2.801000000    -0.361000000
C     2.401000000    -4.123000000    -0.492000000
O     3.599000000    -4.049000000    -0.530000000
O     1.928000000    -5.234000000    -0.322000000
