14
-86.33337
C     0.616000000    -2.150000000    -0.931000000
H     0.700000000    -3.182000000    -1.261000000
C    -0.425000000    -1.803000000    -0.007000000
H    -1.014000000    -2.603000000     0.433000000
C    -0.627000000    -0.428000000     0.294000000
H    -1.462000000    -0.002000000     0.808000000
C     0.302000000     0.497000000    -0.219000000
H     0.178000000     1.527000000     0.105000000
C     1.374000000     0.113000000    -1.026000000
H     2.071000000     0.910000000    -1.272000000
C     1.522000000    -1.216000000    -1.414000000
C     2.601000000    -1.495000000    -2.369000000
O     3.193000000    -0.631000000    -3.000000000
O     2.933000000    -2.651000000    -2.559000000
