14
-87.81799
C    -0.018000000    -2.343000000    -0.926000000
H    -0.351000000    -3.362000000    -1.104000000
C    -0.820000000    -1.259000000    -0.605000000
H    -1.881000000    -1.360000000    -0.396000000
C    -0.310000000     0.001000000    -0.455000000
H    -0.948000000     0.855000000    -0.242000000
C     1.064000000     0.253000000    -0.567000000
H     1.569000000     1.214000000    -0.511000000
C     1.918000000    -0.797000000    -0.869000000
H     2.965000000    -0.565000000    -1.048000000
C     1.399000000    -2.102000000    -1.130000000
C     2.325000000    -3.160000000    -1.587000000
O     3.552000000    -3.070000000    -1.460000000
O     1.885000000    -4.285000000    -1.951000000
