14
-86.37391
C     0.626000000    -2.167000000    -2.004000000
H     0.522000000    -3.021000000    -2.669000000
C    -0.389000000    -1.682000000    -1.100000000
H    -1.357000000    -2.152000000    -0.947000000
C    -0.081000000    -0.509000000    -0.379000000
H    -0.807000000    -0.095000000     0.264000000
C     1.130000000     0.088000000    -0.559000000
H     1.379000000     1.024000000    -0.066000000
C     2.086000000    -0.407000000    -1.445000000
H     2.980000000     0.179000000    -1.641000000
C     1.896000000    -1.642000000    -2.121000000
C     2.922000000    -2.192000000    -3.072000000
O     4.096000000    -1.864000000    -2.892000000
O     2.625000000    -3.111000000    -3.790000000
