14
-89.53487
C     0.760000000    -2.444000000    -1.496000000
H     0.794000000    -3.496000000    -1.765000000
C     0.124000000    -2.097000000    -0.352000000
H    -0.248000000    -2.889000000     0.293000000
C    -0.172000000    -0.773000000    -0.087000000
H    -0.782000000    -0.469000000     0.727000000
C     0.384000000     0.224000000    -0.882000000
H     0.187000000     1.242000000    -0.557000000
C     1.207000000    -0.103000000    -1.997000000
H     1.710000000     0.655000000    -2.592000000
C     1.320000000    -1.458000000    -2.341000000
C     2.188000000    -1.885000000    -3.516000000
O     2.603000000    -1.009000000    -4.262000000
O     2.423000000    -3.042000000    -3.764000000
