14
-89.00874
C     0.176000000    -2.156000000    -1.026000000
H     0.151000000    -3.190000000    -1.360000000
C    -0.658000000    -1.679000000    -0.043000000
H    -1.318000000    -2.363000000     0.484000000
C    -0.671000000    -0.362000000     0.313000000
H    -1.391000000    -0.059000000     1.013000000
C     0.299000000     0.513000000    -0.165000000
H     0.341000000     1.535000000     0.203000000
C     1.162000000     0.076000000    -1.159000000
H     1.966000000     0.685000000    -1.563000000
C     1.173000000    -1.287000000    -1.591000000
C     2.238000000    -1.836000000    -2.476000000
O     2.922000000    -1.074000000    -3.166000000
O     2.316000000    -3.035000000    -2.644000000
