14
-85.20007
C     0.702000000    -1.945000000     0.054000000
H     0.085000000    -2.839000000     0.094000000
C     0.071000000    -0.735000000     0.113000000
H    -1.005000000    -0.759000000     0.267000000
C     0.848000000     0.401000000    -0.132000000
H     0.368000000     1.376000000     0.036000000
C     2.242000000     0.299000000    -0.350000000
H     2.780000000     1.238000000    -0.451000000
C     2.823000000    -0.879000000    -0.189000000
H     3.904000000    -0.898000000    -0.308000000
C     2.092000000    -2.101000000    -0.015000000
C     2.710000000    -3.454000000    -0.297000000
O     3.877000000    -3.663000000    -0.012000000
O     2.030000000    -4.255000000    -0.946000000
