14
-83.27822
C     0.246000000    -1.936000000     0.487000000
H    -0.235000000    -2.850000000     0.827000000
C    -0.456000000    -0.757000000     0.293000000
H    -1.530000000    -0.811000000     0.452000000
C     0.163000000     0.381000000    -0.080000000
H    -0.271000000     1.337000000    -0.303000000
C     1.520000000     0.341000000    -0.387000000
H     2.104000000     1.217000000    -0.658000000
C     2.216000000    -0.855000000    -0.268000000
H     3.220000000    -0.854000000    -0.685000000
C     1.553000000    -2.020000000     0.240000000
C     2.355000000    -3.276000000     0.120000000
O     3.441000000    -3.298000000    -0.409000000
O     1.862000000    -4.352000000     0.487000000
