14
-85.05191
C    -2.615000000     0.803000000    -0.325000000
H    -3.594000000     0.567000000    -0.733000000
C    -1.523000000     0.063000000    -0.677000000
H    -1.622000000    -0.752000000    -1.390000000
C    -0.237000000     0.419000000    -0.257000000
H     0.641000000    -0.053000000    -0.736000000
C    -0.100000000     1.518000000     0.561000000
H     0.923000000     1.709000000     0.875000000
C    -1.191000000     2.305000000     0.921000000
H    -0.969000000     3.104000000     1.625000000
C    -2.475000000     1.953000000     0.513000000
C    -3.705000000     2.699000000     0.972000000
O    -3.538000000     3.540000000     1.780000000
O    -4.855000000     2.452000000     0.595000000
