14
-90.07723
C    -0.119000000    -2.030000000    -0.796000000
H    -0.267000000    -3.093000000    -0.970000000
C    -1.121000000    -1.315000000    -0.153000000
H    -2.064000000    -1.791000000     0.104000000
C    -0.982000000     0.063000000     0.145000000
H    -1.716000000     0.675000000     0.525000000
C     0.196000000     0.720000000    -0.275000000
H     0.387000000     1.769000000    -0.062000000
C     1.267000000    -0.010000000    -0.775000000
H     2.203000000     0.522000000    -0.925000000
C     1.059000000    -1.383000000    -0.985000000
C     2.300000000    -2.147000000    -1.587000000
O     3.365000000    -1.524000000    -1.759000000
O     2.157000000    -3.298000000    -1.979000000
