14
-91.64247
C    -0.434000000    -2.324000000    -0.523000000
H    -1.053000000    -3.214000000    -0.596000000
C    -1.074000000    -1.065000000    -0.517000000
H    -2.158000000    -1.043000000    -0.595000000
C    -0.331000000     0.093000000    -0.253000000
H    -0.788000000     1.105000000    -0.335000000
C     1.045000000    -0.008000000     0.017000000
H     1.556000000     0.884000000     0.371000000
C     1.657000000    -1.206000000    -0.044000000
H     2.720000000    -1.177000000     0.178000000
C     0.928000000    -2.405000000    -0.331000000
C     1.586000000    -3.749000000    -0.501000000
O     2.801000000    -3.854000000    -0.508000000
O     0.852000000    -4.745000000    -0.660000000
