14
-73.84992
C    -0.662000000    -2.720000000    -0.468000000
H    -1.387000000    -3.528000000    -0.525000000
C    -0.893000000    -1.400000000    -0.214000000
H    -1.876000000    -1.030000000     0.063000000
C     0.197000000    -0.564000000    -0.152000000
H     0.053000000     0.520000000     0.197000000
C     1.461000000    -0.927000000    -0.554000000
H     2.272000000    -0.209000000    -0.655000000
C     1.651000000    -2.265000000    -0.951000000
H     2.627000000    -2.481000000    -1.380000000
C     0.617000000    -3.112000000    -0.895000000
C     0.858000000    -4.582000000    -1.224000000
O     1.856000000    -5.101000000    -1.643000000
O    -0.068000000    -5.344000000    -1.184000000
