14
-81.89068
C    -0.346000000    -2.368000000    -0.486000000
H    -0.855000000    -3.256000000    -0.851000000
C    -1.080000000    -1.220000000    -0.381000000
H    -2.129000000    -1.239000000    -0.666000000
C    -0.513000000    -0.025000000    -0.066000000
H    -1.185000000     0.827000000     0.047000000
C     0.806000000    -0.044000000     0.201000000
H     1.194000000     0.956000000     0.375000000
C     1.591000000    -1.209000000     0.207000000
H     2.645000000    -1.219000000     0.470000000
C     0.997000000    -2.414000000    -0.197000000
C     1.921000000    -3.615000000    -0.343000000
O     3.094000000    -3.441000000    -0.343000000
O     1.484000000    -4.736000000    -0.686000000
