14
-84.63777
C     0.403000000    -2.339000000    -0.088000000
H    -0.310000000    -3.156000000    -0.158000000
C     0.020000000    -1.068000000    -0.263000000
H    -1.042000000    -0.881000000    -0.405000000
C     0.928000000    -0.067000000     0.052000000
H     0.553000000     0.916000000     0.052000000
C     2.258000000    -0.363000000     0.390000000
H     2.971000000     0.456000000     0.441000000
C     2.666000000    -1.676000000     0.375000000
H     3.658000000    -2.029000000     0.648000000
C     1.716000000    -2.661000000     0.146000000
C     2.135000000    -4.122000000     0.319000000
O     3.287000000    -4.486000000     0.475000000
O     1.280000000    -4.993000000     0.249000000
