14
-91.45785
C    -0.139000000    -2.505000000    -1.484000000
H    -0.653000000    -3.105000000    -2.230000000
C    -0.495000000    -1.159000000    -1.433000000
H    -1.177000000    -0.669000000    -2.123000000
C     0.008000000    -0.318000000    -0.400000000
H    -0.300000000     0.695000000    -0.264000000
C     1.050000000    -0.837000000     0.365000000
H     1.459000000    -0.104000000     1.056000000
C     1.456000000    -2.139000000     0.263000000
H     2.246000000    -2.525000000     0.902000000
C     0.827000000    -3.020000000    -0.618000000
C     1.278000000    -4.449000000    -0.798000000
O     2.260000000    -4.810000000    -0.177000000
O     0.772000000    -5.141000000    -1.681000000
