14
-88.94942
C    -0.963000000    -2.327000000    -0.184000000
H    -1.633000000    -3.180000000    -0.123000000
C    -1.361000000    -1.050000000     0.077000000
H    -2.365000000    -0.740000000     0.354000000
C    -0.346000000     0.007000000     0.034000000
H    -0.711000000     1.038000000     0.201000000
C     1.009000000    -0.326000000    -0.270000000
H     1.768000000     0.451000000    -0.305000000
C     1.377000000    -1.671000000    -0.395000000
H     2.435000000    -1.900000000    -0.499000000
C     0.399000000    -2.704000000    -0.469000000
C     0.670000000    -4.201000000    -0.584000000
O     1.821000000    -4.469000000    -0.871000000
O    -0.237000000    -5.028000000    -0.525000000
