14
-77.33501
C    -1.644000000    -1.391000000    -1.131000000
H    -2.614000000    -1.871000000    -1.238000000
C    -1.453000000    -0.677000000     0.005000000
H    -2.304000000    -0.530000000     0.666000000
C    -0.285000000    -0.004000000     0.249000000
H    -0.225000000     0.691000000     1.060000000
C     0.806000000    -0.242000000    -0.571000000
H     1.724000000     0.291000000    -0.337000000
C     0.602000000    -0.982000000    -1.737000000
H     1.401000000    -1.163000000    -2.452000000
C    -0.639000000    -1.537000000    -2.104000000
C    -0.740000000    -2.484000000    -3.268000000
O     0.205000000    -2.878000000    -3.934000000
O    -1.719000000    -3.163000000    -3.367000000
