14
-89.72077
C    -1.384000000    -1.656000000    -1.302000000
H    -2.213000000    -2.323000000    -1.526000000
C    -1.547000000    -0.616000000    -0.395000000
H    -2.444000000    -0.374000000     0.169000000
C    -0.461000000     0.192000000    -0.129000000
H    -0.503000000     0.954000000     0.751000000
C     0.803000000    -0.041000000    -0.660000000
H     1.689000000     0.497000000    -0.336000000
C     0.848000000    -1.030000000    -1.674000000
H     1.795000000    -1.224000000    -2.172000000
C    -0.212000000    -1.822000000    -2.038000000
C    -0.074000000    -2.966000000    -2.978000000
O     0.768000000    -2.838000000    -3.894000000
O    -0.811000000    -3.937000000    -2.888000000
