14
-84.41449
C    -2.272000000     0.827000000     0.346000000
H    -3.238000000     0.599000000    -0.097000000
C    -1.115000000     0.036000000     0.133000000
H    -1.232000000    -0.929000000    -0.354000000
C     0.138000000     0.634000000     0.322000000
H     0.983000000     0.227000000    -0.004000000
C     0.206000000     1.847000000     0.944000000
H     1.204000000     2.255000000     1.083000000
C    -0.948000000     2.600000000     1.219000000
H    -0.856000000     3.611000000     1.606000000
C    -2.209000000     2.156000000     0.830000000
C    -3.442000000     3.025000000     0.894000000
O    -3.336000000     4.142000000     1.377000000
O    -4.467000000     2.668000000     0.378000000
