14
-85.39601
C    -1.135000000    -1.699000000    -1.898000000
H    -1.960000000    -2.286000000    -2.296000000
C    -1.517000000    -0.721000000    -0.954000000
H    -2.589000000    -0.541000000    -0.953000000
C    -0.519000000    -0.124000000    -0.170000000
H    -0.917000000     0.522000000     0.634000000
C     0.825000000    -0.451000000    -0.277000000
H     1.559000000     0.074000000     0.328000000
C     1.189000000    -1.422000000    -1.188000000
H     2.248000000    -1.599000000    -1.361000000
C     0.205000000    -2.078000000    -1.980000000
C     0.619000000    -3.104000000    -2.969000000
O     1.668000000    -3.673000000    -2.754000000
O    -0.152000000    -3.561000000    -3.816000000
