14
-81.98486
C    -1.237000000    -1.150000000    -1.436000000
H    -2.137000000    -1.542000000    -1.903000000
C    -1.504000000    -0.335000000    -0.373000000
H    -2.514000000    -0.281000000     0.025000000
C    -0.491000000     0.468000000     0.141000000
H    -0.665000000     1.087000000     0.985000000
C     0.837000000     0.210000000    -0.218000000
H     1.631000000     0.684000000     0.354000000
C     1.092000000    -0.748000000    -1.208000000
H     2.136000000    -0.975000000    -1.410000000
C     0.064000000    -1.449000000    -1.792000000
C     0.403000000    -2.328000000    -2.951000000
O     1.551000000    -2.610000000    -3.207000000
O    -0.487000000    -3.081000000    -3.404000000
