14
-75.19367
C    -0.824000000    -1.332000000    -2.109000000
H    -1.552000000    -1.728000000    -2.811000000
C    -1.241000000    -0.343000000    -1.209000000
H    -2.304000000    -0.116000000    -1.177000000
C    -0.337000000     0.263000000    -0.352000000
H    -0.724000000     1.105000000     0.245000000
C     0.991000000    -0.148000000    -0.275000000
H     1.600000000     0.233000000     0.541000000
C     1.423000000    -1.149000000    -1.075000000
H     2.410000000    -1.556000000    -0.868000000
C     0.566000000    -1.751000000    -1.964000000
C     0.859000000    -3.105000000    -2.535000000
O     1.872000000    -3.633000000    -2.309000000
O     0.131000000    -3.560000000    -3.409000000
