14
-90.21824
C    -0.768000000    -0.502000000    -1.819000000
H    -1.752000000    -0.560000000    -2.278000000
C    -0.545000000     0.271000000    -0.694000000
H    -1.296000000     0.993000000    -0.384000000
C     0.645000000     0.092000000     0.042000000
H     0.712000000     0.720000000     0.882000000
C     1.715000000    -0.676000000    -0.427000000
H     2.693000000    -0.592000000     0.040000000
C     1.505000000    -1.330000000    -1.668000000
H     2.284000000    -2.018000000    -1.986000000
C     0.236000000    -1.346000000    -2.287000000
C     0.137000000    -2.252000000    -3.499000000
O     1.084000000    -2.976000000    -3.791000000
O    -0.963000000    -2.357000000    -4.111000000
