14
-90.62940
C    -1.398000000    -1.459000000    -1.395000000
H    -2.223000000    -2.080000000    -1.733000000
C    -1.103000000    -1.173000000    -0.075000000
H    -1.765000000    -1.452000000     0.742000000
C     0.073000000    -0.549000000     0.343000000
H     0.196000000    -0.369000000     1.404000000
C     1.025000000    -0.187000000    -0.589000000
H     1.979000000     0.230000000    -0.276000000
C     0.921000000    -0.661000000    -1.875000000
H     1.703000000    -0.538000000    -2.620000000
C    -0.266000000    -1.307000000    -2.286000000
C    -0.455000000    -1.826000000    -3.710000000
O     0.473000000    -1.641000000    -4.533000000
O    -1.445000000    -2.554000000    -3.903000000
