14
-88.25590
C    -1.350000000    -1.538000000    -2.677000000
H    -2.216000000    -1.774000000    -3.290000000
C    -1.550000000    -1.192000000    -1.350000000
H    -2.564000000    -1.064000000    -0.979000000
C    -0.542000000    -0.770000000    -0.515000000
H    -0.815000000    -0.549000000     0.447000000
C     0.725000000    -0.883000000    -1.016000000
H     1.502000000    -0.662000000    -0.287000000
C     1.035000000    -1.200000000    -2.326000000
H     2.047000000    -1.259000000    -2.718000000
C    -0.032000000    -1.437000000    -3.252000000
C     0.145000000    -1.810000000    -4.720000000
O     1.282000000    -2.046000000    -5.188000000
O    -0.869000000    -1.872000000    -5.407000000
