14
-84.03507
C    -1.619000000    -1.456000000    -1.824000000
H    -2.574000000    -1.886000000    -2.116000000
C    -1.534000000    -0.719000000    -0.631000000
H    -2.378000000    -0.567000000     0.037000000
C    -0.333000000    -0.196000000    -0.245000000
H    -0.058000000     0.105000000     0.759000000
C     0.827000000    -0.409000000    -1.071000000
H     1.732000000     0.111000000    -0.769000000
C     0.643000000    -1.037000000    -2.295000000
H     1.397000000    -1.088000000    -3.077000000
C    -0.533000000    -1.682000000    -2.657000000
C    -0.664000000    -2.613000000    -3.832000000
O     0.351000000    -2.907000000    -4.405000000
O    -1.702000000    -3.180000000    -4.119000000
