14
-82.09271
C    -1.371000000    -1.655000000    -2.155000000
H    -2.284000000    -1.975000000    -2.651000000
C    -1.463000000    -0.945000000    -0.908000000
H    -2.382000000    -0.764000000    -0.356000000
C    -0.256000000    -0.535000000    -0.286000000
H    -0.332000000     0.016000000     0.644000000
C     0.929000000    -0.650000000    -0.970000000
H     1.812000000    -0.236000000    -0.490000000
C     0.975000000    -1.353000000    -2.158000000
H     1.923000000    -1.424000000    -2.687000000
C    -0.140000000    -1.828000000    -2.844000000
C    -0.058000000    -2.530000000    -4.157000000
O     1.096000000    -2.682000000    -4.575000000
O    -0.922000000    -3.141000000    -4.682000000
