14
-91.02085
C    -1.679000000    -1.619000000    -1.178000000
H    -2.514000000    -2.311000000    -1.261000000
C    -1.717000000    -0.707000000    -0.103000000
H    -2.534000000    -0.761000000     0.612000000
C    -0.626000000     0.082000000     0.208000000
H    -0.674000000     0.771000000     1.022000000
C     0.464000000     0.066000000    -0.631000000
H     1.322000000     0.672000000    -0.350000000
C     0.510000000    -0.776000000    -1.704000000
H     1.394000000    -0.854000000    -2.331000000
C    -0.530000000    -1.716000000    -1.997000000
C    -0.478000000    -2.627000000    -3.209000000
O     0.414000000    -2.500000000    -4.027000000
O    -1.310000000    -3.536000000    -3.342000000
