14
-73.22348
C    -1.134000000    -0.920000000    -2.083000000
H    -2.196000000    -1.113000000    -2.214000000
C    -0.859000000    -0.465000000    -0.797000000
H    -1.664000000    -0.421000000    -0.068000000
C     0.466000000    -0.257000000    -0.439000000
H     0.778000000     0.051000000     0.598000000
C     1.477000000    -0.532000000    -1.286000000
H     2.494000000    -0.395000000    -0.930000000
C     1.230000000    -1.035000000    -2.576000000
H     2.105000000    -1.234000000    -3.189000000
C    -0.117000000    -1.113000000    -3.008000000
C    -0.386000000    -1.475000000    -4.430000000
O     0.539000000    -1.880000000    -5.097000000
O    -1.462000000    -1.814000000    -4.807000000
