14
-75.88698
C    -3.370000000     0.164000000    -0.758000000
H    -4.162000000    -0.213000000    -1.400000000
C    -2.160000000    -0.520000000    -0.631000000
H    -1.939000000    -1.408000000    -1.217000000
C    -1.092000000     0.064000000     0.050000000
H    -0.142000000    -0.551000000    -0.016000000
C    -1.141000000     1.379000000     0.544000000
H    -0.188000000     1.781000000     0.878000000
C    -2.315000000     2.102000000     0.468000000
H    -2.281000000     3.109000000     0.877000000
C    -3.475000000     1.482000000    -0.196000000
C    -4.762000000     2.228000000    -0.268000000
O    -4.709000000     3.382000000    -0.119000000
O    -5.816000000     1.717000000    -0.637000000
