14
-84.61728
C    -0.948000000    -1.713000000    -1.940000000
H    -1.742000000    -2.271000000    -2.430000000
C    -1.267000000    -0.821000000    -0.933000000
H    -2.275000000    -0.709000000    -0.541000000
C    -0.278000000    -0.088000000    -0.297000000
H    -0.549000000     0.569000000     0.495000000
C     1.065000000    -0.300000000    -0.660000000
H     1.871000000     0.258000000    -0.191000000
C     1.430000000    -1.139000000    -1.612000000
H     2.485000000    -1.224000000    -1.857000000
C     0.393000000    -1.908000000    -2.288000000
C     0.821000000    -2.813000000    -3.382000000
O     2.005000000    -2.875000000    -3.802000000
O     0.084000000    -3.754000000    -3.677000000
