14
-84.16144
C    -1.057000000    -0.929000000    -1.566000000
H    -2.079000000    -0.982000000    -1.933000000
C    -0.805000000    -0.430000000    -0.260000000
H    -1.562000000    -0.098000000     0.446000000
C     0.519000000    -0.305000000     0.212000000
H     0.786000000     0.208000000     1.131000000
C     1.598000000    -0.575000000    -0.638000000
H     2.607000000    -0.308000000    -0.332000000
C     1.333000000    -0.954000000    -1.939000000
H     2.218000000    -1.148000000    -2.540000000
C     0.032000000    -1.243000000    -2.381000000
C    -0.045000000    -2.049000000    -3.701000000
O     0.947000000    -2.613000000    -4.147000000
O    -1.120000000    -2.400000000    -4.179000000
