14
-84.34809
C     0.574000000    -1.803000000    -1.929000000
H     0.250000000    -2.570000000    -2.628000000
C    -0.313000000    -1.195000000    -1.062000000
H    -1.384000000    -1.367000000    -1.128000000
C     0.185000000    -0.153000000    -0.240000000
H    -0.385000000     0.420000000     0.501000000
C     1.599000000     0.111000000    -0.178000000
H     1.995000000     0.762000000     0.596000000
C     2.432000000    -0.578000000    -1.034000000
H     3.481000000    -0.308000000    -1.125000000
C     1.951000000    -1.482000000    -1.942000000
C     2.907000000    -2.150000000    -2.891000000
O     4.073000000    -1.716000000    -3.021000000
O     2.594000000    -2.978000000    -3.709000000
