14
-86.71854
C    -0.087000000    -0.886000000    -1.276000000
H    -0.803000000    -1.442000000    -1.876000000
C    -0.400000000    -0.130000000    -0.176000000
H    -1.410000000    -0.031000000     0.212000000
C     0.602000000     0.581000000     0.397000000
H     0.407000000     1.056000000     1.329000000
C     1.931000000     0.373000000    -0.002000000
H     2.819000000     0.885000000     0.362000000
C     2.185000000    -0.452000000    -1.065000000
H     3.173000000    -0.624000000    -1.483000000
C     1.198000000    -1.125000000    -1.744000000
C     1.586000000    -2.057000000    -2.943000000
O     2.746000000    -2.053000000    -3.382000000
O     0.723000000    -2.785000000    -3.395000000
