14
-83.76996
C    -0.188000000    -0.863000000    -1.492000000
H    -0.794000000    -1.626000000    -1.974000000
C    -0.546000000    -0.256000000    -0.274000000
H    -1.491000000    -0.560000000     0.167000000
C     0.288000000     0.580000000     0.363000000
H    -0.083000000     1.043000000     1.316000000
C     1.556000000     0.899000000    -0.156000000
H     2.312000000     1.523000000     0.315000000
C     1.921000000     0.218000000    -1.342000000
H     2.952000000     0.407000000    -1.627000000
C     1.118000000    -0.643000000    -2.034000000
C     1.666000000    -1.379000000    -3.262000000
O     2.818000000    -1.302000000    -3.672000000
O     0.950000000    -2.174000000    -3.815000000
