14
-82.97486
C     0.703000000    -0.741000000    -1.829000000
H     0.649000000    -1.211000000    -2.808000000
C    -0.411000000    -0.565000000    -1.038000000
H    -1.415000000    -0.870000000    -1.323000000
C    -0.214000000     0.007000000     0.165000000
H    -1.098000000     0.120000000     0.859000000
C     1.086000000     0.514000000     0.622000000
H     1.191000000     1.064000000     1.554000000
C     2.238000000     0.345000000    -0.188000000
H     3.214000000     0.703000000     0.129000000
C     1.986000000    -0.301000000    -1.442000000
C     3.175000000    -0.551000000    -2.391000000
O     4.250000000    -0.137000000    -2.092000000
O     3.042000000    -1.029000000    -3.535000000
