14
-72.48030
C     0.170000000    -1.149000000    -1.320000000
H    -0.226000000    -1.984000000    -1.893000000
C    -0.522000000    -0.558000000    -0.260000000
H    -1.500000000    -0.905000000     0.065000000
C     0.041000000     0.428000000     0.457000000
H    -0.533000000     0.913000000     1.196000000
C     1.263000000     0.902000000     0.158000000
H     1.546000000     1.730000000     0.802000000
C     2.019000000     0.317000000    -0.859000000
H     3.081000000     0.553000000    -0.861000000
C     1.475000000    -0.693000000    -1.654000000
C     2.338000000    -1.399000000    -2.669000000
O     3.496000000    -1.257000000    -2.624000000
O     1.899000000    -2.396000000    -3.209000000
