14
-85.99565
C     0.684000000    -0.706000000    -1.908000000
H     0.155000000    -1.420000000    -2.535000000
C    -0.005000000    -0.223000000    -0.766000000
H    -1.065000000    -0.355000000    -0.564000000
C     0.812000000     0.412000000     0.171000000
H     0.390000000     0.843000000     1.144000000
C     2.141000000     0.587000000    -0.038000000
H     2.724000000     0.921000000     0.816000000
C     2.778000000     0.262000000    -1.238000000
H     3.853000000     0.408000000    -1.314000000
C     2.050000000    -0.515000000    -2.160000000
C     2.709000000    -1.033000000    -3.446000000
O     3.887000000    -0.774000000    -3.614000000
O     2.116000000    -1.940000000    -3.993000000
