14
-87.56361
C     1.607000000    -1.096000000    -2.232000000
H     1.480000000    -1.379000000    -3.274000000
C     0.639000000    -0.166000000    -1.785000000
H    -0.219000000     0.046000000    -2.417000000
C     0.742000000     0.419000000    -0.537000000
H    -0.047000000     1.050000000    -0.203000000
C     1.807000000     0.000000000     0.337000000
H     1.863000000     0.377000000     1.355000000
C     2.832000000    -0.862000000    -0.100000000
H     3.657000000    -1.234000000     0.503000000
C     2.781000000    -1.309000000    -1.441000000
C     3.892000000    -2.210000000    -1.950000000
O     4.985000000    -2.200000000    -1.436000000
O     3.672000000    -2.963000000    -2.894000000
