14
-81.44719
C     0.191000000    -1.661000000    -1.275000000
H    -0.325000000    -2.137000000    -2.105000000
C    -0.576000000    -0.735000000    -0.562000000
H    -1.630000000    -0.563000000    -0.766000000
C    -0.093000000    -0.099000000     0.567000000
H    -0.684000000     0.543000000     1.231000000
C     1.309000000    -0.327000000     0.810000000
H     1.730000000     0.367000000     1.533000000
C     2.035000000    -1.246000000     0.103000000
H     3.090000000    -1.365000000     0.333000000
C     1.506000000    -1.921000000    -1.047000000
C     2.353000000    -2.816000000    -1.902000000
O     3.495000000    -2.965000000    -1.540000000
O     2.085000000    -3.128000000    -3.051000000
