14
-81.25805
C     1.622000000     0.413000000    -2.257000000
H     1.712000000     1.013000000    -3.158000000
C     0.650000000     0.736000000    -1.306000000
H    -0.186000000     1.407000000    -1.486000000
C     0.560000000    -0.111000000    -0.195000000
H    -0.238000000    -0.030000000     0.510000000
C     1.469000000    -1.089000000     0.075000000
H     1.316000000    -1.726000000     0.942000000
C     2.528000000    -1.298000000    -0.873000000
H     3.251000000    -2.101000000    -0.756000000
C     2.543000000    -0.629000000    -2.105000000
C     3.597000000    -0.796000000    -3.192000000
O     4.646000000    -1.358000000    -2.862000000
O     3.413000000    -0.458000000    -4.279000000
