14
-83.89397
C     1.209000000     0.565000000    -1.790000000
H     1.454000000     1.311000000    -2.541000000
C     0.221000000     0.773000000    -0.826000000
H    -0.401000000     1.665000000    -0.822000000
C     0.169000000    -0.142000000     0.272000000
H    -0.429000000     0.114000000     1.091000000
C     0.912000000    -1.275000000     0.371000000
H     1.000000000    -1.924000000     1.239000000
C     1.815000000    -1.457000000    -0.621000000
H     2.407000000    -2.363000000    -0.522000000
C     2.065000000    -0.610000000    -1.714000000
C     3.203000000    -0.784000000    -2.756000000
O     3.702000000    -1.908000000    -2.750000000
O     3.409000000     0.018000000    -3.685000000
