14
-89.09783
C     1.039000000     0.214000000    -1.958000000
H     0.684000000     0.711000000    -2.857000000
C     0.327000000     0.289000000    -0.757000000
H    -0.576000000     0.867000000    -0.582000000
C     0.618000000    -0.602000000     0.286000000
H    -0.009000000    -0.595000000     1.228000000
C     1.741000000    -1.420000000     0.119000000
H     2.139000000    -2.072000000     0.893000000
C     2.561000000    -1.235000000    -1.037000000
H     3.459000000    -1.846000000    -1.071000000
C     2.182000000    -0.501000000    -2.128000000
C     2.950000000    -0.372000000    -3.467000000
O     4.189000000    -0.514000000    -3.458000000
O     2.216000000    -0.323000000    -4.459000000
