14
-85.89738
C    -0.122000000    -0.997000000    -2.780000000
H    -0.841000000    -1.421000000    -3.476000000
C    -0.325000000    -1.093000000    -1.392000000
H    -1.208000000    -1.546000000    -0.950000000
C     0.555000000    -0.504000000    -0.540000000
H     0.272000000    -0.581000000     0.523000000
C     1.733000000     0.107000000    -1.031000000
H     2.422000000     0.558000000    -0.321000000
C     1.953000000     0.150000000    -2.441000000
H     2.871000000     0.582000000    -2.830000000
C     0.989000000    -0.367000000    -3.332000000
C     1.183000000    -0.378000000    -4.831000000
O     2.245000000    -0.382000000    -5.352000000
O     0.192000000    -0.566000000    -5.533000000
