14
-86.61738
C    -0.217000000    -1.904000000    -2.598000000
H    -0.678000000    -2.681000000    -3.202000000
C    -0.952000000    -1.308000000    -1.548000000
H    -1.976000000    -1.619000000    -1.355000000
C    -0.354000000    -0.333000000    -0.735000000
H    -0.978000000     0.155000000     0.088000000
C     0.946000000    -0.027000000    -0.878000000
H     1.396000000     0.618000000    -0.128000000
C     1.675000000    -0.540000000    -2.002000000
H     2.661000000    -0.100000000    -2.127000000
C     1.114000000    -1.524000000    -2.841000000
C     1.977000000    -2.250000000    -3.922000000
O     3.183000000    -2.102000000    -3.972000000
O     1.499000000    -3.128000000    -4.663000000
