14
-90.48886
C    -0.216000000    -0.573000000    -3.248000000
H    -0.638000000    -1.048000000    -4.130000000
C    -0.955000000    -0.439000000    -2.086000000
H    -2.036000000    -0.549000000    -2.062000000
C    -0.365000000     0.129000000    -0.982000000
H    -0.970000000     0.466000000    -0.070000000
C     0.962000000     0.430000000    -0.870000000
H     1.406000000     0.883000000     0.013000000
C     1.708000000     0.377000000    -2.054000000
H     2.767000000     0.622000000    -2.052000000
C     1.101000000    -0.139000000    -3.227000000
C     2.032000000    -0.452000000    -4.413000000
O     3.249000000    -0.434000000    -4.218000000
O     1.500000000    -0.834000000    -5.460000000
