14
-77.90665
C    -0.905000000    -1.046000000    -1.667000000
H    -1.706000000    -1.600000000    -2.150000000
C    -1.023000000    -0.565000000    -0.359000000
H    -1.941000000    -0.604000000     0.223000000
C     0.060000000     0.139000000     0.207000000
H     0.081000000     0.525000000     1.183000000
C     1.251000000     0.282000000    -0.486000000
H     2.100000000     0.788000000    -0.032000000
C     1.425000000    -0.194000000    -1.704000000
H     2.351000000     0.057000000    -2.215000000
C     0.318000000    -0.876000000    -2.306000000
C     0.397000000    -1.435000000    -3.706000000
O     1.301000000    -1.078000000    -4.422000000
O    -0.147000000    -2.491000000    -3.840000000
