14
-91.20755
C    -0.940000000    -1.348000000    -1.212000000
H    -1.788000000    -2.007000000    -1.382000000
C    -1.082000000    -0.480000000    -0.134000000
H    -1.990000000    -0.496000000     0.463000000
C     0.036000000     0.300000000     0.327000000
H    -0.091000000     0.913000000     1.220000000
C     1.103000000     0.393000000    -0.559000000
H     1.936000000     1.035000000    -0.286000000
C     1.222000000    -0.438000000    -1.627000000
H     2.083000000    -0.413000000    -2.291000000
C     0.261000000    -1.423000000    -1.908000000
C     0.470000000    -2.465000000    -2.995000000
O     1.234000000    -2.201000000    -3.908000000
O    -0.259000000    -3.452000000    -2.940000000
