14
-79.17402
C    -0.956000000    -1.785000000    -2.041000000
H    -1.551000000    -2.621000000    -2.400000000
C    -0.997000000    -1.436000000    -0.713000000
H    -1.739000000    -1.934000000    -0.095000000
C    -0.175000000    -0.426000000    -0.222000000
H    -0.118000000    -0.166000000     0.864000000
C     0.723000000     0.220000000    -1.093000000
H     1.398000000     0.986000000    -0.718000000
C     0.834000000    -0.249000000    -2.430000000
H     1.535000000     0.227000000    -3.112000000
C    -0.062000000    -1.195000000    -2.976000000
C     0.006000000    -1.761000000    -4.435000000
O     0.837000000    -1.465000000    -5.214000000
O    -0.981000000    -2.301000000    -4.909000000
