14
-82.34802
C    -1.350000000    -1.427000000    -1.411000000
H    -2.145000000    -2.162000000    -1.305000000
C    -0.903000000    -0.669000000    -0.300000000
H    -1.606000000    -0.544000000     0.520000000
C     0.281000000     0.129000000    -0.362000000
H     0.581000000     0.819000000     0.432000000
C     0.899000000     0.235000000    -1.569000000
H     1.763000000     0.865000000    -1.761000000
C     0.522000000    -0.579000000    -2.638000000
H     1.203000000    -0.582000000    -3.485000000
C    -0.566000000    -1.465000000    -2.518000000
C    -0.814000000    -2.572000000    -3.544000000
O    -0.060000000    -2.674000000    -4.499000000
O    -1.610000000    -3.479000000    -3.371000000
