14
-84.42307
C    -3.001000000     0.704000000     0.257000000
H    -3.952000000     0.180000000     0.299000000
C    -1.770000000     0.077000000     0.246000000
H    -1.703000000    -1.007000000     0.202000000
C    -0.619000000     0.867000000     0.197000000
H     0.310000000     0.369000000     0.293000000
C    -0.599000000     2.227000000     0.140000000
H     0.347000000     2.752000000     0.032000000
C    -1.891000000     2.813000000     0.218000000
H    -1.865000000     3.899000000     0.183000000
C    -3.070000000     2.108000000     0.219000000
C    -4.419000000     2.827000000     0.093000000
O    -4.500000000     4.046000000     0.041000000
O    -5.508000000     2.258000000     0.014000000
