14
-85.47041
C    -0.941000000    -1.145000000    -1.522000000
H    -1.789000000    -1.771000000    -1.789000000
C    -0.914000000    -0.451000000    -0.332000000
H    -1.822000000    -0.533000000     0.260000000
C     0.148000000     0.353000000     0.010000000
H     0.230000000     0.700000000     1.056000000
C     1.268000000     0.400000000    -0.809000000
H     2.075000000     1.024000000    -0.436000000
C     1.243000000    -0.295000000    -1.975000000
H     2.086000000    -0.135000000    -2.643000000
C     0.153000000    -1.117000000    -2.344000000
C     0.102000000    -1.768000000    -3.681000000
O     1.073000000    -1.731000000    -4.394000000
O    -0.849000000    -2.478000000    -3.982000000
