14
-86.07666
C    -1.118000000    -1.508000000    -0.134000000
H    -2.023000000    -2.110000000    -0.128000000
C    -1.023000000    -0.355000000     0.683000000
H    -1.773000000     0.054000000     1.356000000
C     0.140000000     0.416000000     0.720000000
H     0.226000000     1.225000000     1.433000000
C     1.167000000     0.076000000    -0.183000000
H     2.116000000     0.604000000    -0.140000000
C     1.100000000    -1.055000000    -0.978000000
H     1.974000000    -1.247000000    -1.594000000
C    -0.071000000    -1.852000000    -0.953000000
C    -0.102000000    -2.985000000    -1.955000000
O     0.828000000    -3.295000000    -2.646000000
O    -1.104000000    -3.649000000    -1.941000000
