14
-74.60312
C    -0.359000000    -1.419000000    -1.149000000
H    -1.196000000    -2.112000000    -1.170000000
C    -0.491000000    -0.319000000    -0.317000000
H    -1.364000000    -0.147000000     0.306000000
C     0.594000000     0.513000000    -0.059000000
H     0.506000000     1.339000000     0.621000000
C     1.732000000     0.308000000    -0.790000000
H     2.612000000     0.927000000    -0.633000000
C     1.790000000    -0.743000000    -1.712000000
H     2.567000000    -0.823000000    -2.468000000
C     0.763000000    -1.684000000    -1.852000000
C     0.927000000    -2.821000000    -2.739000000
O     1.665000000    -2.853000000    -3.681000000
O     0.477000000    -3.889000000    -2.429000000
