14
-86.94589
C    -0.997000000    -1.476000000    -1.552000000
H    -1.794000000    -2.112000000    -1.928000000
C    -1.216000000    -0.529000000    -0.554000000
H    -2.237000000    -0.373000000    -0.215000000
C    -0.154000000     0.078000000     0.027000000
H    -0.276000000     0.950000000     0.682000000
C     1.134000000    -0.317000000    -0.351000000
H     1.961000000     0.133000000     0.192000000
C     1.314000000    -1.266000000    -1.333000000
H     2.286000000    -1.532000000    -1.741000000
C     0.261000000    -1.963000000    -1.980000000
C     0.530000000    -2.903000000    -3.108000000
O     1.660000000    -3.132000000    -3.498000000
O    -0.447000000    -3.416000000    -3.686000000
