14
-79.20718
C    -0.866000000    -1.746000000    -1.031000000
H    -1.778000000    -2.171000000    -1.441000000
C    -0.934000000    -0.637000000    -0.154000000
H    -1.881000000    -0.311000000     0.268000000
C     0.239000000     0.111000000     0.030000000
H     0.214000000     0.987000000     0.728000000
C     1.424000000    -0.163000000    -0.657000000
H     2.334000000     0.431000000    -0.666000000
C     1.429000000    -1.357000000    -1.286000000
H     2.361000000    -1.719000000    -1.712000000
C     0.314000000    -2.131000000    -1.588000000
C     0.398000000    -3.291000000    -2.533000000
O     1.455000000    -3.680000000    -2.967000000
O    -0.564000000    -3.972000000    -2.873000000
