14
-85.04906
C    -0.107000000    -1.949000000    -0.464000000
H    -0.741000000    -2.793000000    -0.203000000
C    -0.212000000    -0.716000000     0.135000000
H    -0.926000000    -0.466000000     0.916000000
C     0.596000000     0.334000000    -0.245000000
H     0.582000000     1.225000000     0.260000000
C     1.384000000     0.207000000    -1.341000000
H     1.890000000     1.109000000    -1.674000000
C     1.552000000    -0.975000000    -2.022000000
H     2.258000000    -1.056000000    -2.845000000
C     0.801000000    -2.130000000    -1.613000000
C     1.010000000    -3.498000000    -2.292000000
O     1.911000000    -3.588000000    -3.201000000
O     0.182000000    -4.323000000    -2.071000000
