14
-78.67633
C    -0.811000000    -1.878000000    -1.081000000
H    -1.669000000    -2.526000000    -1.242000000
C    -0.877000000    -0.747000000    -0.251000000
H    -1.756000000    -0.442000000     0.312000000
C     0.265000000    -0.108000000     0.108000000
H     0.211000000     0.739000000     0.931000000
C     1.521000000    -0.410000000    -0.570000000
H     2.433000000     0.090000000    -0.256000000
C     1.559000000    -1.488000000    -1.406000000
H     2.520000000    -1.799000000    -1.808000000
C     0.416000000    -2.171000000    -1.780000000
C     0.587000000    -3.477000000    -2.540000000
O     1.566000000    -3.777000000    -3.212000000
O    -0.339000000    -4.322000000    -2.599000000
