14
-90.83030
C    -1.161000000    -1.536000000    -0.656000000
H    -2.170000000    -1.892000000    -0.849000000
C    -0.989000000    -0.248000000    -0.114000000
H    -1.855000000     0.354000000     0.152000000
C     0.304000000     0.294000000     0.111000000
H     0.332000000     1.323000000     0.508000000
C     1.378000000    -0.456000000    -0.221000000
H     2.356000000     0.005000000    -0.101000000
C     1.198000000    -1.703000000    -0.819000000
H     2.049000000    -2.239000000    -1.232000000
C    -0.040000000    -2.270000000    -0.951000000
C    -0.268000000    -3.564000000    -1.637000000
O     0.663000000    -4.092000000    -2.259000000
O    -1.463000000    -3.965000000    -1.755000000
