14
-73.87101
C    -0.973000000    -2.052000000    -0.749000000
H    -1.150000000    -3.051000000    -0.358000000
C    -0.706000000    -1.000000000     0.127000000
H    -0.688000000    -1.212000000     1.193000000
C    -0.398000000     0.223000000    -0.422000000
H    -0.140000000     0.980000000     0.296000000
C    -0.489000000     0.483000000    -1.795000000
H    -0.267000000     1.431000000    -2.278000000
C    -0.957000000    -0.562000000    -2.624000000
H    -0.797000000    -0.561000000    -3.699000000
C    -0.905000000    -1.828000000    -2.146000000
C    -0.865000000    -3.006000000    -3.017000000
O    -0.722000000    -2.923000000    -4.211000000
O    -0.769000000    -4.137000000    -2.560000000
