14
-89.90535
C    -1.140000000    -1.483000000    -0.269000000
H    -2.174000000    -1.816000000    -0.273000000
C    -0.841000000    -0.214000000     0.156000000
H    -1.572000000     0.512000000     0.503000000
C     0.508000000     0.161000000     0.270000000
H     0.797000000     1.122000000     0.655000000
C     1.527000000    -0.681000000    -0.110000000
H     2.582000000    -0.457000000     0.029000000
C     1.216000000    -2.015000000    -0.505000000
H     1.978000000    -2.724000000    -0.820000000
C    -0.125000000    -2.398000000    -0.675000000
C    -0.531000000    -3.727000000    -1.277000000
O     0.274000000    -4.649000000    -1.281000000
O    -1.533000000    -3.830000000    -2.004000000
