14
-83.41489
C    -0.292000000    -1.704000000    -0.061000000
H    -0.364000000    -2.646000000     0.477000000
C    -0.282000000    -0.478000000     0.543000000
H    -0.537000000    -0.393000000     1.596000000
C     0.072000000     0.651000000    -0.226000000
H     0.122000000     1.682000000     0.285000000
C     0.213000000     0.596000000    -1.617000000
H     0.285000000     1.501000000    -2.214000000
C     0.151000000    -0.636000000    -2.180000000
H     0.245000000    -0.761000000    -3.256000000
C    -0.095000000    -1.804000000    -1.456000000
C     0.081000000    -3.082000000    -2.067000000
O     0.380000000    -3.131000000    -3.259000000
O    -0.086000000    -4.129000000    -1.471000000
