14
-92.29193
C    -1.246000000    -1.550000000    -0.471000000
H    -2.238000000    -1.987000000    -0.389000000
C    -0.918000000    -0.371000000     0.246000000
H    -1.619000000     0.240000000     0.808000000
C     0.349000000     0.167000000     0.150000000
H     0.553000000     0.988000000     0.766000000
C     1.335000000    -0.567000000    -0.537000000
H     2.373000000    -0.243000000    -0.560000000
C     1.012000000    -1.745000000    -1.217000000
H     1.710000000    -2.298000000    -1.840000000
C    -0.289000000    -2.223000000    -1.202000000
C    -0.638000000    -3.548000000    -1.869000000
O     0.289000000    -4.212000000    -2.346000000
O    -1.793000000    -3.907000000    -1.991000000
