14
-84.46175
C    -0.708000000    -2.634000000    -0.737000000
H    -0.951000000    -3.689000000    -0.647000000
C    -0.018000000    -1.923000000     0.236000000
H     0.170000000    -2.442000000     1.172000000
C     0.166000000    -0.556000000     0.217000000
H     0.627000000     0.004000000     1.103000000
C    -0.195000000     0.133000000    -0.920000000
H    -0.084000000     1.215000000    -0.907000000
C    -0.771000000    -0.563000000    -2.015000000
H    -1.091000000    -0.011000000    -2.895000000
C    -1.042000000    -1.954000000    -1.954000000
C    -1.386000000    -2.742000000    -3.168000000
O    -1.505000000    -2.087000000    -4.160000000
O    -1.503000000    -3.955000000    -3.201000000
