14
-84.78149
C    -0.072000000    -2.028000000     0.198000000
H     0.237000000    -2.772000000     0.928000000
C     0.154000000    -0.647000000     0.458000000
H     0.689000000    -0.307000000     1.341000000
C    -0.207000000     0.268000000    -0.511000000
H     0.006000000     1.322000000    -0.342000000
C    -0.712000000    -0.163000000    -1.693000000
H    -1.005000000     0.558000000    -2.452000000
C    -0.986000000    -1.524000000    -1.929000000
H    -1.262000000    -1.875000000    -2.920000000
C    -0.633000000    -2.510000000    -1.010000000
C    -0.769000000    -3.974000000    -1.259000000
O    -1.292000000    -4.256000000    -2.333000000
O    -0.121000000    -4.739000000    -0.638000000
