14
-79.53796
C     0.110000000    -1.910000000    -0.033000000
H     0.097000000    -2.783000000     0.615000000
C     0.139000000    -0.558000000     0.473000000
H     0.179000000    -0.311000000     1.531000000
C     0.107000000     0.563000000    -0.407000000
H    -0.168000000     1.540000000     0.031000000
C     0.077000000     0.321000000    -1.804000000
H    -0.032000000     1.160000000    -2.487000000
C     0.316000000    -0.976000000    -2.312000000
H     0.501000000    -1.111000000    -3.374000000
C     0.284000000    -2.095000000    -1.427000000
C     0.443000000    -3.429000000    -2.011000000
O     0.558000000    -3.636000000    -3.223000000
O     0.320000000    -4.445000000    -1.369000000
