14
-86.19328
C    -0.179000000    -2.807000000    -0.906000000
H    -0.381000000    -3.635000000    -0.230000000
C     0.178000000    -1.523000000    -0.398000000
H     0.429000000    -1.472000000     0.658000000
C     0.199000000    -0.380000000    -1.215000000
H     0.452000000     0.507000000    -0.749000000
C    -0.129000000    -0.504000000    -2.497000000
H    -0.125000000     0.382000000    -3.127000000
C    -0.530000000    -1.758000000    -3.072000000
H    -0.815000000    -1.910000000    -4.110000000
C    -0.566000000    -2.888000000    -2.245000000
C    -0.862000000    -4.266000000    -2.872000000
O    -1.591000000    -4.319000000    -3.885000000
O    -0.697000000    -5.317000000    -2.204000000
