14
-86.30374
C     0.015000000    -2.535000000     0.028000000
H     0.245000000    -3.575000000     0.246000000
C     0.532000000    -1.654000000     0.967000000
H     1.156000000    -1.934000000     1.812000000
C     0.147000000    -0.340000000     0.860000000
H     0.431000000     0.306000000     1.597000000
C    -0.639000000     0.145000000    -0.162000000
H    -0.889000000     1.194000000    -0.295000000
C    -1.075000000    -0.751000000    -1.159000000
H    -1.599000000    -0.453000000    -2.063000000
C    -0.793000000    -2.137000000    -1.056000000
C    -1.321000000    -3.029000000    -2.084000000
O    -1.680000000    -2.588000000    -3.171000000
O    -1.128000000    -4.237000000    -1.935000000
