14
-89.79498
C    -0.228000000    -2.368000000    -0.605000000
H    -0.230000000    -3.455000000    -0.628000000
C     0.034000000    -1.680000000     0.556000000
H     0.202000000    -2.199000000     1.497000000
C    -0.154000000    -0.308000000     0.551000000
H    -0.048000000     0.254000000     1.477000000
C    -0.443000000     0.387000000    -0.642000000
H    -0.591000000     1.459000000    -0.738000000
C    -0.679000000    -0.328000000    -1.830000000
H    -0.846000000     0.178000000    -2.778000000
C    -0.526000000    -1.732000000    -1.834000000
C    -0.809000000    -2.512000000    -3.141000000
O    -0.944000000    -1.903000000    -4.181000000
O    -0.876000000    -3.736000000    -3.189000000
