14
-79.05551
C     0.326000000    -2.101000000    -0.277000000
H     0.667000000    -2.997000000     0.235000000
C     0.212000000    -0.832000000     0.334000000
H     0.280000000    -0.721000000     1.413000000
C     0.065000000     0.336000000    -0.410000000
H     0.002000000     1.290000000     0.100000000
C    -0.121000000     0.290000000    -1.772000000
H    -0.138000000     1.208000000    -2.354000000
C    -0.126000000    -0.959000000    -2.366000000
H    -0.249000000    -0.890000000    -3.444000000
C     0.132000000    -2.189000000    -1.699000000
C     0.068000000    -3.594000000    -2.296000000
O    -0.061000000    -3.640000000    -3.474000000
O     0.347000000    -4.600000000    -1.708000000
