14
-86.70482
C    -2.817000000     0.958000000    -0.331000000
H    -3.840000000     0.771000000    -0.646000000
C    -1.855000000    -0.077000000    -0.507000000
H    -2.062000000    -1.055000000    -0.934000000
C    -0.500000000     0.205000000    -0.207000000
H     0.283000000    -0.558000000    -0.382000000
C    -0.118000000     1.482000000     0.191000000
H     0.938000000     1.589000000     0.423000000
C    -1.075000000     2.532000000     0.210000000
H    -0.707000000     3.511000000     0.505000000
C    -2.454000000     2.255000000    -0.013000000
C    -3.331000000     3.396000000     0.043000000
O    -2.931000000     4.560000000     0.248000000
O    -4.518000000     3.211000000    -0.178000000
