14
-81.72759
C    -0.565000000    -2.363000000    -0.349000000
H    -0.367000000    -3.412000000    -0.147000000
C     0.291000000    -1.480000000     0.306000000
H     0.951000000    -1.828000000     1.096000000
C     0.309000000    -0.135000000    -0.024000000
H     0.849000000     0.603000000     0.493000000
C    -0.612000000     0.341000000    -0.976000000
H    -0.693000000     1.409000000    -1.165000000
C    -1.454000000    -0.497000000    -1.633000000
H    -2.085000000    -0.110000000    -2.429000000
C    -1.470000000    -1.860000000    -1.290000000
C    -2.432000000    -2.761000000    -1.953000000
O    -3.095000000    -2.299000000    -2.860000000
O    -2.270000000    -3.991000000    -1.972000000
