14
-85.92303
C    -0.741000000    -2.249000000     0.154000000
H    -0.384000000    -3.206000000     0.525000000
C     0.080000000    -1.214000000     0.442000000
H     1.028000000    -1.430000000     0.928000000
C    -0.193000000     0.090000000    -0.109000000
H     0.426000000     0.957000000     0.038000000
C    -1.411000000     0.364000000    -0.691000000
H    -1.647000000     1.364000000    -1.045000000
C    -2.364000000    -0.697000000    -0.797000000
H    -3.324000000    -0.567000000    -1.291000000
C    -1.970000000    -2.021000000    -0.481000000
C    -2.783000000    -3.284000000    -0.979000000
O    -3.753000000    -3.117000000    -1.657000000
O    -2.434000000    -4.370000000    -0.559000000
