14
-84.97398
C    -0.717000000    -2.269000000    -0.099000000
H    -0.476000000    -3.281000000     0.215000000
C     0.160000000    -1.263000000     0.172000000
H     1.024000000    -1.444000000     0.806000000
C    -0.055000000     0.018000000    -0.264000000
H     0.671000000     0.744000000    -0.101000000
C    -1.147000000     0.329000000    -1.070000000
H    -1.315000000     1.345000000    -1.418000000
C    -2.101000000    -0.644000000    -1.231000000
H    -2.965000000    -0.445000000    -1.860000000
C    -1.903000000    -1.968000000    -0.810000000
C    -2.936000000    -3.028000000    -1.028000000
O    -3.784000000    -2.775000000    -1.875000000
O    -2.637000000    -4.235000000    -0.785000000
