14
-85.45897
C    -0.916000000    -1.908000000    -0.062000000
H    -1.054000000    -2.974000000     0.097000000
C     0.299000000    -1.462000000     0.448000000
H     0.960000000    -2.099000000     1.031000000
C     0.568000000    -0.078000000     0.467000000
H     1.451000000     0.256000000     1.058000000
C    -0.348000000     0.778000000    -0.240000000
H    -0.122000000     1.841000000    -0.283000000
C    -1.536000000     0.308000000    -0.872000000
H    -2.261000000     0.982000000    -1.321000000
C    -1.847000000    -1.043000000    -0.673000000
C    -3.125000000    -1.663000000    -1.173000000
O    -3.855000000    -0.967000000    -1.862000000
O    -3.526000000    -2.760000000    -0.839000000
