14
-90.29441
C    -1.239000000    -2.113000000    -0.330000000
H    -1.432000000    -3.182000000    -0.364000000
C    -0.171000000    -1.645000000     0.476000000
H     0.486000000    -2.308000000     1.032000000
C     0.160000000    -0.318000000     0.554000000
H     1.012000000     0.156000000     1.136000000
C    -0.496000000     0.562000000    -0.320000000
H    -0.141000000     1.582000000    -0.449000000
C    -1.604000000     0.108000000    -1.113000000
H    -2.122000000     0.893000000    -1.658000000
C    -2.004000000    -1.223000000    -1.095000000
C    -3.242000000    -1.774000000    -1.782000000
O    -3.903000000    -1.061000000    -2.535000000
O    -3.482000000    -2.941000000    -1.575000000
