14
-81.86521
C    -1.285000000    -2.118000000     0.205000000
H    -1.319000000    -3.187000000     0.398000000
C    -0.010000000    -1.553000000     0.504000000
H     0.802000000    -2.105000000     0.969000000
C     0.256000000    -0.222000000     0.160000000
H     1.258000000     0.084000000     0.288000000
C    -0.819000000     0.583000000    -0.313000000
H    -0.763000000     1.652000000    -0.503000000
C    -2.018000000     0.009000000    -0.710000000
H    -2.720000000     0.698000000    -1.173000000
C    -2.312000000    -1.352000000    -0.427000000
C    -3.456000000    -2.011000000    -1.046000000
O    -4.348000000    -1.266000000    -1.457000000
O    -3.471000000    -3.184000000    -1.202000000
