14
-89.65537
C    -1.577000000    -2.505000000    -0.533000000
H    -1.347000000    -3.526000000    -0.240000000
C    -0.738000000    -1.520000000    -0.060000000
H     0.145000000    -1.801000000     0.509000000
C    -1.057000000    -0.184000000    -0.311000000
H    -0.319000000     0.568000000     0.021000000
C    -2.239000000     0.146000000    -0.960000000
H    -2.478000000     1.203000000    -1.053000000
C    -3.127000000    -0.813000000    -1.359000000
H    -4.121000000    -0.515000000    -1.683000000
C    -2.807000000    -2.201000000    -1.186000000
C    -3.808000000    -3.174000000    -1.624000000
O    -4.769000000    -2.850000000    -2.328000000
O    -3.691000000    -4.366000000    -1.301000000
