14
-71.46134
C    -1.431000000    -1.778000000    -0.463000000
H    -2.094000000    -2.639000000    -0.481000000
C    -0.522000000    -1.651000000     0.588000000
H    -0.386000000    -2.416000000     1.348000000
C     0.301000000    -0.543000000     0.593000000
H     0.939000000    -0.331000000     1.346000000
C     0.163000000     0.398000000    -0.408000000
H     0.733000000     1.320000000    -0.328000000
C    -0.777000000     0.316000000    -1.421000000
H    -0.762000000     1.034000000    -2.238000000
C    -1.603000000    -0.815000000    -1.439000000
C    -2.500000000    -1.018000000    -2.559000000
O    -2.340000000    -0.364000000    -3.559000000
O    -3.156000000    -1.988000000    -2.727000000
