14
-89.78995
C    -0.596000000    -2.401000000    -0.345000000
H    -0.426000000    -3.449000000    -0.113000000
C     0.078000000    -1.431000000     0.358000000
H     0.728000000    -1.692000000     1.189000000
C    -0.147000000    -0.082000000     0.106000000
H     0.383000000     0.587000000     0.745000000
C    -1.073000000     0.246000000    -0.890000000
H    -1.287000000     1.281000000    -1.145000000
C    -1.701000000    -0.774000000    -1.657000000
H    -2.455000000    -0.530000000    -2.401000000
C    -1.529000000    -2.107000000    -1.377000000
C    -2.134000000    -3.212000000    -2.261000000
O    -2.758000000    -2.921000000    -3.248000000
O    -1.912000000    -4.388000000    -2.018000000
