14
-88.30025
C    -0.559000000    -1.692000000     0.039000000
H    -0.439000000    -2.687000000     0.461000000
C     0.101000000    -0.606000000     0.574000000
H     0.780000000    -0.696000000     1.418000000
C    -0.126000000     0.633000000    -0.017000000
H     0.269000000     1.612000000     0.328000000
C    -1.015000000     0.815000000    -1.087000000
H    -1.170000000     1.826000000    -1.455000000
C    -1.561000000    -0.338000000    -1.667000000
H    -2.231000000    -0.167000000    -2.506000000
C    -1.385000000    -1.543000000    -1.083000000
C    -1.945000000    -2.760000000    -1.860000000
O    -2.730000000    -2.594000000    -2.780000000
O    -1.623000000    -3.905000000    -1.580000000
