14
-85.97272
C    -1.571000000    -2.296000000    -0.514000000
H    -1.705000000    -3.314000000    -0.158000000
C    -0.408000000    -1.564000000    -0.195000000
H     0.282000000    -2.077000000     0.470000000
C    -0.319000000    -0.236000000    -0.569000000
H     0.485000000     0.407000000    -0.406000000
C    -1.292000000     0.248000000    -1.424000000
H    -1.167000000     1.254000000    -1.817000000
C    -2.443000000    -0.541000000    -1.750000000
H    -3.253000000    -0.171000000    -2.375000000
C    -2.557000000    -1.818000000    -1.322000000
C    -3.735000000    -2.714000000    -1.701000000
O    -4.626000000    -2.283000000    -2.445000000
O    -3.715000000    -3.876000000    -1.415000000
