14
-84.88880
C    -0.826000000    -1.872000000    -0.238000000
H    -0.832000000    -2.830000000     0.275000000
C    -0.051000000    -0.851000000     0.216000000
H     0.560000000    -0.954000000     1.109000000
C     0.084000000     0.299000000    -0.576000000
H     0.718000000     1.098000000    -0.210000000
C    -0.692000000     0.431000000    -1.748000000
H    -0.723000000     1.356000000    -2.317000000
C    -1.506000000    -0.597000000    -2.161000000
H    -2.180000000    -0.443000000    -2.999000000
C    -1.588000000    -1.772000000    -1.383000000
C    -2.291000000    -2.974000000    -1.922000000
O    -2.528000000    -3.078000000    -3.104000000
O    -2.491000000    -3.928000000    -1.228000000
