14
-84.86637
C    -0.437000000    -2.399000000    -0.005000000
H    -0.372000000    -3.358000000     0.503000000
C     0.327000000    -1.345000000     0.522000000
H     0.918000000    -1.438000000     1.429000000
C     0.125000000    -0.089000000     0.046000000
H     0.518000000     0.782000000     0.616000000
C    -0.607000000     0.062000000    -1.133000000
H    -0.681000000     1.084000000    -1.498000000
C    -1.117000000    -1.075000000    -1.797000000
H    -1.599000000    -1.050000000    -2.772000000
C    -1.121000000    -2.277000000    -1.161000000
C    -1.914000000    -3.406000000    -1.803000000
O    -2.263000000    -3.352000000    -3.008000000
O    -1.860000000    -4.524000000    -1.226000000
