14
-85.32849
C    -0.375000000    -2.422000000    -0.224000000
H    -0.622000000    -3.458000000    -0.007000000
C     0.169000000    -1.507000000     0.670000000
H     0.561000000    -1.887000000     1.610000000
C     0.077000000    -0.133000000     0.429000000
H     0.538000000     0.608000000     1.083000000
C    -0.359000000     0.332000000    -0.836000000
H    -0.261000000     1.391000000    -1.059000000
C    -0.814000000    -0.557000000    -1.762000000
H    -1.269000000    -0.162000000    -2.666000000
C    -0.969000000    -1.927000000    -1.395000000
C    -1.797000000    -2.942000000    -2.255000000
O    -2.498000000    -2.520000000    -3.185000000
O    -1.577000000    -4.165000000    -2.234000000
