14
-81.09881
C     0.690000000    -2.223000000     0.072000000
H     1.070000000    -3.130000000     0.536000000
C     0.603000000    -1.175000000     0.983000000
H     0.999000000    -1.334000000     1.983000000
C     0.100000000     0.042000000     0.567000000
H     0.066000000     0.807000000     1.248000000
C    -0.343000000     0.213000000    -0.763000000
H    -0.591000000     1.224000000    -1.076000000
C    -0.388000000    -0.860000000    -1.678000000
H    -0.720000000    -0.746000000    -2.706000000
C     0.259000000    -2.056000000    -1.247000000
C     0.655000000    -3.105000000    -2.296000000
O     0.470000000    -2.943000000    -3.481000000
O     1.167000000    -4.131000000    -1.973000000
