14
-93.35969
C     0.015000000    -1.960000000     0.881000000
H     0.191000000    -2.090000000     1.946000000
C     0.069000000    -0.654000000     0.262000000
H     0.226000000     0.261000000     0.827000000
C    -0.185000000    -0.540000000    -1.081000000
H    -0.117000000     0.389000000    -1.627000000
C    -0.522000000    -1.705000000    -1.808000000
H    -0.752000000    -1.619000000    -2.867000000
C    -0.572000000    -2.922000000    -1.204000000
H    -0.843000000    -3.805000000    -1.776000000
C    -0.377000000    -3.073000000     0.178000000
C    -0.562000000    -4.415000000     0.859000000
O    -1.015000000    -5.379000000     0.166000000
O    -0.198000000    -4.627000000     2.023000000
