14
-84.62294
C    -0.238000000    -1.890000000     0.596000000
H    -0.160000000    -2.603000000     1.413000000
C    -0.179000000    -0.529000000     0.967000000
H    -0.057000000    -0.157000000     1.981000000
C    -0.179000000     0.412000000    -0.013000000
H    -0.128000000     1.509000000     0.235000000
C    -0.096000000    -0.013000000    -1.346000000
H    -0.204000000     0.784000000    -2.078000000
C    -0.212000000    -1.361000000    -1.758000000
H    -0.200000000    -1.662000000    -2.803000000
C    -0.242000000    -2.319000000    -0.764000000
C    -0.297000000    -3.744000000    -1.071000000
O     0.044000000    -4.155000000    -2.139000000
O    -0.776000000    -4.506000000    -0.223000000
