14
-86.48927
C     0.467000000    -2.274000000     1.097000000
H     0.566000000    -3.097000000     1.800000000
C     0.557000000    -1.000000000     1.580000000
H     0.657000000    -0.835000000     2.650000000
C     0.627000000     0.154000000     0.818000000
H     0.737000000     1.141000000     1.240000000
C     0.440000000     0.041000000    -0.537000000
H     0.448000000     0.957000000    -1.122000000
C     0.296000000    -1.219000000    -1.116000000
H     0.041000000    -1.335000000    -2.166000000
C     0.286000000    -2.442000000    -0.319000000
C     0.275000000    -3.800000000    -0.937000000
O     0.493000000    -3.892000000    -2.160000000
O     0.299000000    -4.801000000    -0.249000000
