14
-89.32099
C    -2.497000000     0.829000000    -0.352000000
H    -3.566000000     0.633000000    -0.307000000
C    -1.473000000    -0.184000000    -0.356000000
H    -1.754000000    -1.232000000    -0.293000000
C    -0.135000000     0.201000000    -0.249000000
H     0.623000000    -0.562000000    -0.044000000
C     0.257000000     1.539000000    -0.233000000
H     1.324000000     1.746000000    -0.205000000
C    -0.757000000     2.511000000    -0.212000000
H    -0.436000000     3.549000000    -0.188000000
C    -2.115000000     2.191000000    -0.335000000
C    -3.194000000     3.283000000    -0.393000000
O    -2.950000000     4.478000000    -0.029000000
O    -4.197000000     3.067000000    -1.041000000
