14
-78.47237
C     0.031000000    -3.066000000     1.156000000
H     0.130000000    -3.828000000     1.925000000
C     0.139000000    -1.708000000     1.435000000
H     0.209000000    -1.318000000     2.447000000
C     0.251000000    -0.766000000     0.397000000
H     0.264000000     0.332000000     0.639000000
C     0.220000000    -1.170000000    -0.918000000
H     0.383000000    -0.448000000    -1.714000000
C     0.228000000    -2.488000000    -1.210000000
H     0.238000000    -2.780000000    -2.257000000
C     0.229000000    -3.458000000    -0.218000000
C     0.421000000    -4.891000000    -0.544000000
O     0.683000000    -5.255000000    -1.711000000
O     0.182000000    -5.738000000     0.225000000
