14
-88.92014
C    -1.430000000    -2.212000000     0.791000000
H    -2.273000000    -2.754000000     1.212000000
C    -1.633000000    -0.834000000     0.671000000
H    -2.486000000    -0.303000000     1.087000000
C    -0.598000000     0.008000000     0.120000000
H    -0.582000000     1.110000000     0.204000000
C     0.584000000    -0.555000000    -0.351000000
H     1.400000000    -0.027000000    -0.839000000
C     0.703000000    -1.924000000    -0.194000000
H     1.586000000    -2.462000000    -0.530000000
C    -0.230000000    -2.802000000     0.338000000
C     0.029000000    -4.282000000     0.264000000
O     1.045000000    -4.712000000    -0.254000000
O    -0.870000000    -5.048000000     0.674000000
