14
-86.86263
C    -1.688000000    -1.618000000    -0.844000000
H    -1.786000000    -1.751000000    -1.918000000
C    -0.737000000    -0.799000000    -0.274000000
H    -0.123000000    -0.282000000    -1.008000000
C    -0.574000000    -0.728000000     1.113000000
H     0.260000000    -0.157000000     1.580000000
C    -1.286000000    -1.547000000     1.962000000
H    -1.162000000    -1.523000000     3.042000000
C    -2.305000000    -2.346000000     1.387000000
H    -2.883000000    -2.910000000     2.114000000
C    -2.560000000    -2.350000000    -0.001000000
C    -3.745000000    -3.143000000    -0.436000000
O    -4.278000000    -4.012000000     0.329000000
O    -4.079000000    -3.012000000    -1.562000000
