14
-81.76997
C    -1.240000000    -0.927000000    -1.393000000
H    -1.402000000    -0.797000000    -2.460000000
C    -0.432000000    -0.039000000    -0.704000000
H     0.095000000     0.769000000    -1.204000000
C    -0.227000000    -0.172000000     0.676000000
H     0.410000000     0.519000000     1.325000000
C    -0.798000000    -1.293000000     1.304000000
H    -0.517000000    -1.407000000     2.348000000
C    -1.651000000    -2.149000000     0.647000000
H    -2.142000000    -2.917000000     1.239000000
C    -1.934000000    -1.899000000    -0.668000000
C    -2.981000000    -2.828000000    -1.300000000
O    -3.451000000    -3.745000000    -0.661000000
O    -3.105000000    -2.865000000    -2.484000000
