14
-89.35447
C    -1.629000000    -1.466000000    -0.656000000
H    -2.327000000    -1.545000000    -1.485000000
C    -0.638000000    -0.420000000    -0.688000000
H    -0.479000000     0.175000000    -1.584000000
C     0.132000000    -0.182000000     0.456000000
H     0.792000000     0.689000000     0.451000000
C    -0.142000000    -0.846000000     1.651000000
H     0.407000000    -0.639000000     2.566000000
C    -1.180000000    -1.824000000     1.669000000
H    -1.316000000    -2.283000000     2.645000000
C    -1.950000000    -2.115000000     0.543000000
C    -3.048000000    -3.105000000     0.628000000
O    -3.129000000    -3.840000000     1.613000000
O    -3.917000000    -3.123000000    -0.219000000
