14
-81.46068
C    -1.625000000    -0.079000000    -0.524000000
H    -2.432000000    -0.702000000    -0.901000000
C    -0.584000000    -0.608000000     0.155000000
H    -0.490000000    -1.691000000     0.157000000
C     0.447000000     0.232000000     0.481000000
H     1.368000000    -0.242000000     0.855000000
C     0.298000000     1.656000000     0.400000000
H     1.030000000     2.409000000     0.679000000
C    -0.921000000     2.192000000    -0.089000000
H    -1.065000000     3.263000000     0.024000000
C    -1.884000000     1.261000000    -0.542000000
C    -3.168000000     1.834000000    -0.981000000
O    -3.233000000     3.040000000    -1.061000000
O    -3.999000000     1.083000000    -1.508000000
