14
-89.26951
C    -0.152000000    -0.970000000    -1.887000000
H    -0.068000000    -1.074000000    -2.966000000
C     0.322000000     0.042000000    -1.093000000
H     0.856000000     0.865000000    -1.561000000
C     0.054000000     0.125000000     0.268000000
H     0.515000000     0.879000000     0.816000000
C    -0.517000000    -0.896000000     0.940000000
H    -0.577000000    -0.836000000     2.024000000
C    -1.115000000    -1.922000000     0.155000000
H    -1.641000000    -2.710000000     0.689000000
C    -0.887000000    -1.993000000    -1.249000000
C    -1.419000000    -3.227000000    -1.942000000
O    -2.289000000    -3.980000000    -1.451000000
O    -0.888000000    -3.455000000    -3.039000000
