14
-91.07711
C    -0.157000000    -1.439000000    -1.973000000
H     0.254000000    -1.652000000    -2.956000000
C     0.174000000    -0.265000000    -1.392000000
H     0.693000000     0.461000000    -2.013000000
C    -0.187000000    -0.099000000    -0.037000000
H     0.130000000     0.706000000     0.596000000
C    -0.934000000    -1.145000000     0.604000000
H    -1.238000000    -0.955000000     1.630000000
C    -1.347000000    -2.330000000    -0.016000000
H    -1.895000000    -3.103000000     0.516000000
C    -0.906000000    -2.473000000    -1.338000000
C    -1.193000000    -3.756000000    -2.112000000
O    -1.948000000    -4.557000000    -1.555000000
O    -0.752000000    -3.934000000    -3.243000000
