14
-80.38913
C    -1.536000000    -1.876000000    -1.617000000
H    -1.560000000    -1.934000000    -2.702000000
C    -0.748000000    -0.860000000    -1.008000000
H    -0.288000000    -0.111000000    -1.647000000
C    -0.619000000    -0.798000000     0.374000000
H    -0.080000000     0.061000000     0.904000000
C    -1.111000000    -1.888000000     1.063000000
H    -1.031000000    -1.888000000     2.147000000
C    -1.825000000    -2.921000000     0.491000000
H    -2.329000000    -3.661000000     1.108000000
C    -2.073000000    -2.933000000    -0.792000000
C    -2.817000000    -4.076000000    -1.459000000
O    -2.749000000    -5.185000000    -0.967000000
O    -3.316000000    -3.994000000    -2.591000000
