14
-76.81596
C    -0.458000000    -0.843000000    -1.828000000
H    -0.233000000    -1.151000000    -2.846000000
C     0.322000000     0.190000000    -1.257000000
H     0.925000000     0.837000000    -1.889000000
C     0.144000000     0.419000000     0.083000000
H     0.681000000     1.299000000     0.607000000
C    -0.714000000    -0.287000000     0.882000000
H    -0.716000000    -0.044000000     1.942000000
C    -1.418000000    -1.360000000     0.362000000
H    -1.942000000    -2.082000000     0.983000000
C    -1.231000000    -1.700000000    -1.012000000
C    -1.903000000    -2.863000000    -1.580000000
O    -2.498000000    -3.640000000    -0.875000000
O    -1.670000000    -3.216000000    -2.690000000
