14
-82.46784
C    -0.421000000    -2.032000000    -2.315000000
H    -0.803000000    -1.903000000    -3.324000000
C     0.345000000    -0.954000000    -1.883000000
H     0.580000000    -0.106000000    -2.521000000
C     0.942000000    -1.008000000    -0.588000000
H     1.631000000    -0.297000000    -0.166000000
C     0.693000000    -2.083000000     0.200000000
H     1.090000000    -2.012000000     1.210000000
C    -0.153000000    -3.152000000    -0.232000000
H    -0.439000000    -3.959000000     0.437000000
C    -0.625000000    -3.234000000    -1.580000000
C    -1.348000000    -4.439000000    -2.033000000
O    -1.263000000    -5.452000000    -1.416000000
O    -1.963000000    -4.440000000    -3.106000000
