14
-82.87419
C    -0.877000000    -1.879000000    -1.283000000
H    -1.049000000    -1.652000000    -2.332000000
C    -0.595000000    -0.677000000    -0.641000000
H    -0.619000000     0.329000000    -1.054000000
C    -0.084000000    -0.726000000     0.630000000
H     0.327000000     0.232000000     1.034000000
C    -0.032000000    -1.911000000     1.333000000
H     0.349000000    -1.951000000     2.350000000
C    -0.399000000    -3.126000000     0.696000000
H    -0.345000000    -4.085000000     1.206000000
C    -0.826000000    -3.140000000    -0.644000000
C    -1.352000000    -4.368000000    -1.286000000
O    -1.476000000    -5.432000000    -0.641000000
O    -1.817000000    -4.324000000    -2.389000000
