14
-83.71131
C    -0.811000000    -1.326000000    -2.466000000
H    -0.875000000    -1.646000000    -3.503000000
C    -0.368000000    -0.024000000    -2.131000000
H     0.024000000     0.614000000    -2.919000000
C    -0.177000000     0.361000000    -0.815000000
H     0.263000000     1.349000000    -0.669000000
C    -0.492000000    -0.531000000     0.229000000
H    -0.452000000    -0.089000000     1.221000000
C    -1.011000000    -1.743000000    -0.118000000
H    -1.225000000    -2.443000000     0.686000000
C    -1.122000000    -2.191000000    -1.442000000
C    -1.565000000    -3.567000000    -1.839000000
O    -2.212000000    -4.254000000    -1.076000000
O    -1.275000000    -4.104000000    -2.887000000
