14
-88.90460
C    -0.962000000    -1.626000000    -2.649000000
H    -0.721000000    -1.695000000    -3.706000000
C    -0.703000000    -0.445000000    -1.977000000
H    -0.305000000     0.345000000    -2.609000000
C    -0.714000000    -0.410000000    -0.570000000
H    -0.417000000     0.492000000    -0.059000000
C    -1.220000000    -1.464000000     0.109000000
H    -1.236000000    -1.490000000     1.195000000
C    -1.738000000    -2.572000000    -0.572000000
H    -2.247000000    -3.423000000    -0.127000000
C    -1.565000000    -2.698000000    -1.952000000
C    -1.933000000    -3.971000000    -2.640000000
O    -2.611000000    -4.782000000    -2.075000000
O    -1.406000000    -4.236000000    -3.733000000
