14
-88.54770
C    -0.637000000    -1.419000000    -1.772000000
H    -0.862000000    -1.310000000    -2.830000000
C    -0.461000000    -0.354000000    -0.888000000
H    -0.450000000     0.639000000    -1.329000000
C    -0.157000000    -0.546000000     0.413000000
H     0.074000000     0.304000000     1.007000000
C    -0.281000000    -1.873000000     0.879000000
H    -0.079000000    -1.976000000     1.942000000
C    -0.570000000    -2.933000000     0.055000000
H    -0.669000000    -3.934000000     0.469000000
C    -0.699000000    -2.780000000    -1.297000000
C    -0.878000000    -3.902000000    -2.269000000
O    -0.651000000    -5.018000000    -1.718000000
O    -1.057000000    -3.788000000    -3.488000000
