14
-87.96248
C    -0.547000000    -1.446000000    -1.728000000
H    -0.412000000    -1.268000000    -2.791000000
C    -0.408000000    -0.360000000    -0.805000000
H    -0.262000000     0.696000000    -1.021000000
C    -0.441000000    -0.676000000     0.553000000
H    -0.274000000     0.064000000     1.237000000
C    -0.680000000    -1.988000000     0.964000000
H    -0.700000000    -2.217000000     2.027000000
C    -0.787000000    -3.015000000     0.032000000
H    -1.009000000    -3.997000000     0.442000000
C    -0.801000000    -2.783000000    -1.347000000
C    -1.038000000    -3.870000000    -2.343000000
O    -1.523000000    -4.940000000    -1.966000000
O    -0.886000000    -3.728000000    -3.563000000
