14
-83.33655
C     1.355000000    -0.509000000    -2.277000000
H     1.924000000    -0.097000000    -3.106000000
C     0.783000000     0.473000000    -1.419000000
H     1.022000000     1.506000000    -1.660000000
C     0.150000000     0.171000000    -0.237000000
H    -0.216000000     0.920000000     0.419000000
C     0.010000000    -1.182000000     0.062000000
H    -0.316000000    -1.497000000     1.050000000
C     0.452000000    -2.173000000    -0.791000000
H     0.384000000    -3.228000000    -0.536000000
C     1.110000000    -1.838000000    -1.977000000
C     1.443000000    -3.019000000    -3.033000000
O     1.182000000    -4.131000000    -2.683000000
O     1.787000000    -2.824000000    -4.163000000
