14
-80.85607
C     1.343000000    -0.573000000    -2.087000000
H     1.809000000    -0.242000000    -3.011000000
C     0.699000000     0.383000000    -1.309000000
H     0.722000000     1.458000000    -1.465000000
C     0.098000000    -0.071000000    -0.160000000
H    -0.258000000     0.651000000     0.496000000
C     0.029000000    -1.446000000     0.195000000
H    -0.487000000    -1.757000000     1.100000000
C     0.625000000    -2.348000000    -0.613000000
H     0.634000000    -3.395000000    -0.321000000
C     1.442000000    -1.932000000    -1.694000000
C     2.158000000    -2.977000000    -2.602000000
O     1.955000000    -4.126000000    -2.512000000
O     2.807000000    -2.550000000    -3.538000000
