14
-82.72670
C     0.886000000    -0.644000000    -2.446000000
H     1.246000000    -0.252000000    -3.393000000
C     0.287000000     0.220000000    -1.549000000
H     0.281000000     1.281000000    -1.783000000
C    -0.227000000    -0.251000000    -0.313000000
H    -0.778000000     0.305000000     0.405000000
C    -0.056000000    -1.607000000     0.004000000
H    -0.288000000    -1.987000000     0.996000000
C     0.498000000    -2.414000000    -0.976000000
H     0.644000000    -3.433000000    -0.627000000
C     1.028000000    -1.977000000    -2.222000000
C     1.605000000    -2.980000000    -3.193000000
O     1.466000000    -4.146000000    -3.052000000
O     2.123000000    -2.593000000    -4.304000000
