14
-80.48657
C     1.645000000    -0.173000000    -2.110000000
H     2.205000000     0.223000000    -2.953000000
C     0.853000000     0.633000000    -1.331000000
H     0.984000000     1.704000000    -1.461000000
C    -0.002000000     0.093000000    -0.364000000
H    -0.682000000     0.807000000     0.268000000
C    -0.069000000    -1.292000000    -0.254000000
H    -0.668000000    -1.805000000     0.494000000
C     0.793000000    -2.095000000    -1.042000000
H     0.674000000    -3.159000000    -0.853000000
C     1.605000000    -1.574000000    -2.023000000
C     2.423000000    -2.453000000    -2.953000000
O     2.281000000    -3.652000000    -3.010000000
O     3.298000000    -2.054000000    -3.703000000
