14
-80.49410
C     0.921000000     0.069000000    -2.109000000
H     1.252000000     0.763000000    -2.877000000
C     0.703000000     0.530000000    -0.815000000
H     0.837000000     1.596000000    -0.650000000
C     0.120000000    -0.274000000     0.191000000
H    -0.074000000     0.070000000     1.128000000
C    -0.233000000    -1.573000000    -0.156000000
H    -0.801000000    -2.199000000     0.527000000
C    -0.036000000    -2.015000000    -1.465000000
H    -0.327000000    -3.024000000    -1.748000000
C     0.679000000    -1.253000000    -2.400000000
C     0.985000000    -1.832000000    -3.753000000
O     0.706000000    -2.949000000    -4.112000000
O     1.338000000    -1.106000000    -4.656000000
