14
-76.26814
C    -0.401000000    -0.155000000    -2.105000000
H    -0.956000000     0.395000000    -2.861000000
C    -0.708000000     0.235000000    -0.809000000
H    -1.416000000     1.037000000    -0.615000000
C    -0.101000000    -0.474000000     0.192000000
H    -0.234000000    -0.172000000     1.203000000
C     0.916000000    -1.452000000    -0.118000000
H     1.424000000    -1.966000000     0.694000000
C     1.212000000    -1.811000000    -1.380000000
H     1.864000000    -2.669000000    -1.527000000
C     0.480000000    -1.193000000    -2.421000000
C     0.765000000    -1.592000000    -3.854000000
O     1.286000000    -2.632000000    -4.142000000
O     0.323000000    -0.966000000    -4.749000000
