14
-84.54581
C    -1.773000000    -1.092000000    -2.621000000
H    -2.570000000    -1.186000000    -3.355000000
C    -1.781000000    -0.045000000    -1.717000000
H    -2.498000000     0.759000000    -1.859000000
C    -0.799000000     0.076000000    -0.754000000
H    -0.833000000     0.891000000    -0.009000000
C     0.068000000    -1.028000000    -0.632000000
H     0.782000000    -0.873000000     0.173000000
C     0.070000000    -2.148000000    -1.451000000
H     0.741000000    -2.995000000    -1.337000000
C    -0.857000000    -2.162000000    -2.490000000
C    -0.926000000    -3.323000000    -3.491000000
O    -0.212000000    -4.290000000    -3.396000000
O    -1.629000000    -3.276000000    -4.466000000
