14
-81.86770
C    -0.166000000     0.279000000    -2.276000000
H    -0.769000000     0.723000000    -3.063000000
C    -0.567000000     0.456000000    -0.959000000
H    -1.478000000     1.021000000    -0.780000000
C     0.218000000     0.035000000     0.049000000
H    -0.124000000     0.306000000     1.026000000
C     1.320000000    -0.809000000    -0.202000000
H     1.936000000    -1.132000000     0.634000000
C     1.598000000    -1.130000000    -1.512000000
H     2.379000000    -1.848000000    -1.747000000
C     0.860000000    -0.606000000    -2.627000000
C     1.200000000    -0.988000000    -4.052000000
O     1.831000000    -1.931000000    -4.416000000
O     0.504000000    -0.426000000    -4.915000000
