14
-85.08119
C    -0.175000000     0.614000000    -1.683000000
H    -0.748000000     1.251000000    -2.352000000
C    -0.446000000     0.721000000    -0.282000000
H    -1.244000000     1.334000000     0.129000000
C     0.328000000     0.046000000     0.635000000
H     0.269000000     0.247000000     1.683000000
C     1.314000000    -0.800000000     0.146000000
H     1.952000000    -1.370000000     0.817000000
C     1.571000000    -0.996000000    -1.190000000
H     2.469000000    -1.565000000    -1.417000000
C     0.860000000    -0.261000000    -2.154000000
C     1.134000000    -0.426000000    -3.591000000
O     1.796000000    -1.371000000    -4.009000000
O     0.520000000     0.249000000    -4.379000000
