14
-87.67293
C    -0.394000000     0.349000000    -2.397000000
H    -0.983000000     0.906000000    -3.121000000
C    -0.804000000     0.295000000    -1.116000000
H    -1.730000000     0.776000000    -0.814000000
C    -0.013000000    -0.265000000    -0.120000000
H    -0.385000000    -0.287000000     0.964000000
C     1.186000000    -0.782000000    -0.378000000
H     1.835000000    -1.136000000     0.419000000
C     1.689000000    -0.688000000    -1.663000000
H     2.670000000    -1.129000000    -1.823000000
C     0.867000000    -0.198000000    -2.664000000
C     1.408000000    -0.141000000    -4.079000000
O     2.404000000    -0.850000000    -4.298000000
O     0.733000000     0.394000000    -4.982000000
