14
-83.62326
C     0.106000000    -0.236000000    -2.021000000
H    -0.503000000     0.180000000    -2.819000000
C    -0.228000000     0.131000000    -0.675000000
H    -1.159000000     0.619000000    -0.398000000
C     0.617000000    -0.324000000     0.349000000
H     0.395000000    -0.219000000     1.382000000
C     1.786000000    -1.014000000     0.033000000
H     2.449000000    -1.297000000     0.847000000
C     2.177000000    -1.238000000    -1.266000000
H     3.121000000    -1.715000000    -1.518000000
C     1.278000000    -0.909000000    -2.348000000
C     1.770000000    -1.166000000    -3.738000000
O     2.489000000    -2.095000000    -3.961000000
O     1.279000000    -0.615000000    -4.717000000
