14
-87.78862
C    -0.643000000     0.422000000    -1.876000000
H    -1.177000000     0.715000000    -2.776000000
C    -1.198000000     0.651000000    -0.616000000
H    -2.207000000     1.023000000    -0.458000000
C    -0.534000000     0.286000000     0.494000000
H    -1.052000000     0.423000000     1.514000000
C     0.683000000    -0.336000000     0.348000000
H     1.248000000    -0.659000000     1.219000000
C     1.309000000    -0.525000000    -0.883000000
H     2.281000000    -1.009000000    -0.828000000
C     0.639000000    -0.119000000    -2.049000000
C     1.210000000    -0.255000000    -3.472000000
O     2.173000000    -0.997000000    -3.649000000
O     0.789000000     0.410000000    -4.399000000
