14
-85.44546
C     2.071000000    -1.965000000    -1.804000000
H     2.339000000    -3.018000000    -1.786000000
C     1.325000000    -1.493000000    -0.700000000
H     0.934000000    -2.151000000     0.072000000
C     0.954000000    -0.173000000    -0.613000000
H     0.349000000     0.215000000     0.256000000
C     1.432000000     0.717000000    -1.581000000
H     1.214000000     1.782000000    -1.609000000
C     2.113000000     0.299000000    -2.713000000
H     2.475000000     1.079000000    -3.378000000
C     2.469000000    -1.050000000    -2.764000000
C     3.155000000    -1.584000000    -4.025000000
O     3.421000000    -0.789000000    -4.864000000
O     3.435000000    -2.742000000    -4.069000000
