14
-78.82413
C    -2.707000000     0.371000000    -0.194000000
H    -3.704000000     0.125000000    -0.550000000
C    -1.767000000    -0.617000000    -0.220000000
H    -1.958000000    -1.649000000    -0.502000000
C    -0.480000000    -0.305000000     0.103000000
H     0.240000000    -1.050000000     0.102000000
C    -0.125000000     0.965000000     0.482000000
H     0.914000000     1.163000000     0.731000000
C    -1.153000000     1.982000000     0.600000000
H    -0.817000000     2.948000000     0.968000000
C    -2.482000000     1.659000000     0.218000000
C    -3.590000000     2.587000000     0.109000000
O    -3.456000000     3.697000000     0.497000000
O    -4.712000000     2.267000000    -0.335000000
