14
-79.83699
C     1.035000000    -2.486000000    -1.086000000
H     0.839000000    -3.544000000    -1.237000000
C     0.292000000    -1.840000000    -0.192000000
H    -0.373000000    -2.445000000     0.418000000
C     0.446000000    -0.441000000    -0.017000000
H    -0.135000000     0.072000000     0.758000000
C     1.281000000     0.253000000    -0.877000000
H     1.420000000     1.324000000    -0.751000000
C     1.940000000    -0.372000000    -1.853000000
H     2.468000000     0.215000000    -2.601000000
C     1.865000000    -1.801000000    -2.019000000
C     2.651000000    -2.394000000    -3.078000000
O     2.890000000    -1.684000000    -4.018000000
O     2.744000000    -3.622000000    -3.112000000
