14
-88.78909
C     0.197000000    -1.578000000    -0.661000000
H    -0.053000000    -2.616000000    -0.458000000
C    -0.290000000    -0.547000000     0.169000000
H    -0.974000000    -0.806000000     0.973000000
C    -0.024000000     0.798000000    -0.073000000
H    -0.524000000     1.603000000     0.548000000
C     0.949000000     1.110000000    -1.051000000
H     1.157000000     2.172000000    -1.159000000
C     1.483000000     0.050000000    -1.844000000
H     2.311000000     0.269000000    -2.513000000
C     1.115000000    -1.264000000    -1.633000000
C     1.654000000    -2.462000000    -2.464000000
O     2.763000000    -2.373000000    -3.049000000
O     0.948000000    -3.412000000    -2.710000000
