14
-89.45082
C    -1.604000000    -0.653000000    -0.051000000
H    -2.373000000    -1.415000000    -0.151000000
C    -0.312000000    -1.060000000    -0.351000000
H    -0.113000000    -2.098000000    -0.604000000
C     0.698000000    -0.131000000    -0.172000000
H     1.723000000    -0.360000000    -0.381000000
C     0.451000000     1.191000000     0.282000000
H     1.281000000     1.889000000     0.353000000
C    -0.891000000     1.569000000     0.585000000
H    -1.274000000     2.563000000     0.802000000
C    -1.900000000     0.614000000     0.437000000
C    -3.307000000     1.094000000     0.474000000
O    -3.631000000     2.188000000     0.908000000
O    -4.189000000     0.369000000    -0.068000000
