14
-84.00351
C     0.638000000    -2.821000000    -1.385000000
H     0.837000000    -3.888000000    -1.339000000
C    -0.114000000    -2.155000000    -0.493000000
H    -0.583000000    -2.620000000     0.370000000
C    -0.258000000    -0.742000000    -0.514000000
H    -0.840000000    -0.268000000     0.294000000
C     0.256000000    -0.066000000    -1.594000000
H     0.255000000     1.020000000    -1.545000000
C     0.929000000    -0.729000000    -2.605000000
H     1.457000000    -0.171000000    -3.374000000
C     1.245000000    -2.075000000    -2.428000000
C     1.902000000    -2.849000000    -3.542000000
O     2.103000000    -2.307000000    -4.652000000
O     2.155000000    -4.007000000    -3.441000000
