14
-86.51088
C     1.518000000    -1.822000000    -0.992000000
H     1.822000000    -2.716000000    -0.455000000
C     0.935000000    -0.806000000    -0.252000000
H     0.965000000    -0.869000000     0.833000000
C     0.494000000     0.380000000    -0.866000000
H     0.070000000     1.108000000    -0.259000000
C     0.460000000     0.447000000    -2.276000000
H    -0.089000000     1.248000000    -2.764000000
C     1.067000000    -0.576000000    -3.033000000
H     0.905000000    -0.486000000    -4.104000000
C     1.556000000    -1.755000000    -2.470000000
C     2.163000000    -2.807000000    -3.391000000
O     2.135000000    -2.604000000    -4.575000000
O     2.798000000    -3.703000000    -2.864000000
