14
-86.51172
C     0.844000000    -2.279000000    -0.559000000
H     0.847000000    -3.366000000    -0.590000000
C    -0.094000000    -1.582000000     0.209000000
H    -0.758000000    -2.095000000     0.900000000
C     0.067000000    -0.179000000     0.260000000
H    -0.549000000     0.344000000     0.943000000
C     0.939000000     0.478000000    -0.568000000
H     0.828000000     1.559000000    -0.552000000
C     1.803000000    -0.207000000    -1.370000000
H     2.652000000     0.282000000    -1.840000000
C     1.760000000    -1.628000000    -1.327000000
C     2.737000000    -2.460000000    -2.144000000
O     3.320000000    -1.830000000    -3.010000000
O     2.683000000    -3.673000000    -2.145000000
