14
-80.08611
C    -2.904000000     0.230000000     0.500000000
H    -3.922000000    -0.025000000     0.783000000
C    -1.979000000    -0.712000000     0.083000000
H    -2.098000000    -1.791000000     0.020000000
C    -0.724000000    -0.295000000    -0.321000000
H    -0.023000000    -1.097000000    -0.559000000
C    -0.276000000     0.989000000    -0.149000000
H     0.722000000     1.298000000    -0.450000000
C    -1.227000000     1.914000000     0.328000000
H    -0.806000000     2.909000000     0.448000000
C    -2.576000000     1.590000000     0.549000000
C    -3.472000000     2.657000000     1.066000000
O    -3.159000000     3.847000000     1.016000000
O    -4.672000000     2.486000000     1.265000000
