14
-80.43522
C     0.552000000    -2.125000000    -0.634000000
H     0.502000000    -3.208000000    -0.721000000
C    -0.450000000    -1.565000000     0.099000000
H    -1.221000000    -2.181000000     0.556000000
C    -0.484000000    -0.207000000     0.404000000
H    -1.248000000     0.185000000     1.151000000
C     0.511000000     0.603000000    -0.145000000
H     0.510000000     1.671000000     0.054000000
C     1.542000000     0.067000000    -0.914000000
H     2.314000000     0.710000000    -1.329000000
C     1.579000000    -1.322000000    -1.171000000
C     2.484000000    -1.998000000    -2.204000000
O     3.248000000    -1.392000000    -2.949000000
O     2.401000000    -3.153000000    -2.393000000
