14
-91.19326
C     0.565000000    -2.831000000    -0.903000000
H     0.296000000    -3.885000000    -0.892000000
C    -0.365000000    -1.966000000    -0.347000000
H    -1.256000000    -2.415000000     0.083000000
C    -0.220000000    -0.619000000    -0.420000000
H    -0.951000000     0.036000000     0.123000000
C     0.916000000    -0.074000000    -1.077000000
H     1.066000000     0.989000000    -1.253000000
C     1.847000000    -0.925000000    -1.657000000
H     2.693000000    -0.506000000    -2.195000000
C     1.598000000    -2.327000000    -1.672000000
C     2.456000000    -3.190000000    -2.554000000
O     3.335000000    -2.659000000    -3.218000000
O     2.254000000    -4.414000000    -2.616000000
