14
-84.55343
C     0.370000000    -2.227000000    -0.818000000
H     0.131000000    -3.282000000    -0.713000000
C    -0.402000000    -1.321000000    -0.099000000
H    -1.186000000    -1.740000000     0.527000000
C    -0.072000000     0.028000000     0.019000000
H    -0.728000000     0.736000000     0.542000000
C     1.017000000     0.492000000    -0.749000000
H     1.360000000     1.522000000    -0.680000000
C     1.825000000    -0.412000000    -1.444000000
H     2.623000000     0.016000000    -2.045000000
C     1.477000000    -1.765000000    -1.493000000
C     2.353000000    -2.777000000    -2.254000000
O     3.321000000    -2.401000000    -2.859000000
O     2.135000000    -3.954000000    -2.265000000
