14
-89.26940
C     2.825000000    -2.152000000    -1.228000000
H     3.213000000    -3.149000000    -1.036000000
C     2.024000000    -1.545000000    -0.269000000
H     1.846000000    -2.027000000     0.689000000
C     1.363000000    -0.375000000    -0.600000000
H     0.651000000     0.034000000     0.167000000
C     1.501000000     0.249000000    -1.802000000
H     0.819000000     1.080000000    -1.960000000
C     2.262000000    -0.402000000    -2.804000000
H     2.222000000    -0.085000000    -3.843000000
C     2.972000000    -1.581000000    -2.514000000
C     3.788000000    -2.212000000    -3.615000000
O     3.834000000    -1.681000000    -4.732000000
O     4.485000000    -3.116000000    -3.258000000
