14
-87.84745
C     2.558000000    -1.957000000    -1.034000000
H     3.222000000    -2.818000000    -1.041000000
C     1.812000000    -1.573000000     0.125000000
H     1.901000000    -2.254000000     0.967000000
C     1.125000000    -0.387000000     0.214000000
H     0.703000000    -0.118000000     1.198000000
C     1.173000000     0.437000000    -0.916000000
H     0.707000000     1.418000000    -0.870000000
C     1.813000000     0.050000000    -2.059000000
H     1.644000000     0.652000000    -2.948000000
C     2.544000000    -1.136000000    -2.131000000
C     3.255000000    -1.479000000    -3.377000000
O     2.997000000    -0.929000000    -4.428000000
O     4.139000000    -2.313000000    -3.339000000
