14
-87.72397
C     2.098000000    -1.339000000    -0.686000000
H     2.879000000    -2.081000000    -0.544000000
C     1.200000000    -1.032000000     0.336000000
H     1.219000000    -1.537000000     1.299000000
C     0.188000000    -0.083000000     0.102000000
H    -0.440000000     0.095000000     0.930000000
C     0.075000000     0.572000000    -1.065000000
H    -0.743000000     1.288000000    -1.089000000
C     0.933000000     0.292000000    -2.157000000
H     0.783000000     0.795000000    -3.109000000
C     2.029000000    -0.593000000    -1.901000000
C     3.041000000    -0.933000000    -2.995000000
O     2.869000000    -0.543000000    -4.127000000
O     4.106000000    -1.536000000    -2.743000000
