14
-80.56312
C     1.950000000    -0.709000000    -0.263000000
H     2.731000000    -1.373000000     0.099000000
C     0.964000000    -0.261000000     0.556000000
H     0.940000000    -0.489000000     1.619000000
C    -0.132000000     0.421000000     0.021000000
H    -0.924000000     0.739000000     0.665000000
C    -0.378000000     0.322000000    -1.304000000
H    -1.325000000     0.643000000    -1.731000000
C     0.646000000    -0.102000000    -2.188000000
H     0.455000000    -0.006000000    -3.254000000
C     1.838000000    -0.602000000    -1.664000000
C     2.905000000    -1.185000000    -2.556000000
O     2.736000000    -1.277000000    -3.749000000
O     3.785000000    -1.956000000    -2.084000000
