14
-79.13896
C     2.661000000    -0.837000000    -1.141000000
H     3.664000000    -1.173000000    -0.895000000
C     1.802000000    -0.398000000    -0.186000000
H     2.087000000    -0.342000000     0.862000000
C     0.555000000     0.078000000    -0.571000000
H    -0.116000000     0.408000000     0.179000000
C     0.214000000     0.093000000    -1.921000000
H    -0.702000000     0.578000000    -2.247000000
C     1.108000000    -0.380000000    -2.904000000
H     0.768000000    -0.370000000    -3.937000000
C     2.273000000    -1.036000000    -2.498000000
C     3.237000000    -1.675000000    -3.476000000
O     2.903000000    -2.245000000    -4.455000000
O     4.380000000    -1.886000000    -3.113000000
