14
-86.03794
C    -1.449000000    -1.179000000     1.602000000
H    -1.665000000    -1.836000000     2.440000000
C    -0.076000000    -1.021000000     1.370000000
H     0.630000000    -1.635000000     1.923000000
C     0.282000000    -0.240000000     0.201000000
H     1.307000000    -0.316000000    -0.206000000
C    -0.663000000     0.491000000    -0.506000000
H    -0.329000000     1.186000000    -1.272000000
C    -1.980000000     0.472000000    -0.104000000
H    -2.657000000     1.005000000    -0.766000000
C    -2.425000000    -0.397000000     0.922000000
C    -3.940000000    -0.585000000     1.100000000
O    -4.822000000     0.167000000     0.676000000
O    -4.185000000    -1.590000000     1.740000000
