14
-81.49397
C     2.195000000    -0.888000000    -0.452000000
H     3.194000000    -1.034000000    -0.050000000
C     1.201000000    -0.327000000     0.396000000
H     1.373000000    -0.054000000     1.434000000
C    -0.068000000    -0.005000000    -0.113000000
H    -0.851000000     0.319000000     0.591000000
C    -0.365000000    -0.331000000    -1.382000000
H    -1.404000000    -0.212000000    -1.681000000
C     0.463000000    -1.096000000    -2.097000000
H     0.092000000    -1.526000000    -3.024000000
C     1.795000000    -1.383000000    -1.651000000
C     2.678000000    -2.281000000    -2.489000000
O     2.360000000    -2.612000000    -3.592000000
O     3.729000000    -2.657000000    -1.991000000
