14
-77.30987
C     2.555000000    -0.772000000    -0.356000000
H     3.611000000    -0.865000000    -0.119000000
C     1.838000000     0.039000000     0.423000000
H     2.189000000     0.465000000     1.360000000
C     0.494000000     0.252000000     0.096000000
H    -0.138000000     0.948000000     0.642000000
C     0.016000000    -0.163000000    -1.137000000
H    -1.025000000     0.018000000    -1.393000000
C     0.788000000    -0.975000000    -1.952000000
H     0.437000000    -1.319000000    -2.921000000
C     2.089000000    -1.338000000    -1.556000000
C     2.987000000    -2.217000000    -2.465000000
O     2.569000000    -3.164000000    -3.056000000
O     4.156000000    -2.197000000    -2.177000000
