14
-91.90102
C     2.624000000    -0.908000000    -0.977000000
H     3.657000000    -0.991000000    -0.649000000
C     1.645000000    -0.227000000    -0.244000000
H     1.809000000     0.271000000     0.709000000
C     0.308000000    -0.291000000    -0.664000000
H    -0.471000000     0.197000000    -0.060000000
C    -0.033000000    -0.962000000    -1.824000000
H    -1.065000000    -1.027000000    -2.160000000
C     0.933000000    -1.565000000    -2.619000000
H     0.735000000    -2.077000000    -3.557000000
C     2.264000000    -1.661000000    -2.098000000
C     3.300000000    -2.522000000    -2.825000000
O     2.910000000    -3.216000000    -3.768000000
O     4.439000000    -2.683000000    -2.408000000
