14
-86.33261
C     1.476000000    -1.852000000    -0.375000000
H     2.427000000    -2.335000000    -0.162000000
C     0.977000000    -0.676000000     0.193000000
H     1.420000000    -0.221000000     1.075000000
C    -0.149000000    -0.051000000    -0.355000000
H    -0.533000000     0.896000000     0.119000000
C    -0.865000000    -0.693000000    -1.303000000
H    -1.821000000    -0.286000000    -1.621000000
C    -0.365000000    -1.801000000    -2.028000000
H    -0.950000000    -2.184000000    -2.860000000
C     0.796000000    -2.458000000    -1.481000000
C     1.186000000    -3.771000000    -2.044000000
O     0.322000000    -4.603000000    -2.409000000
O     2.393000000    -4.104000000    -2.173000000
