14
-85.08030
C     2.525000000    -1.157000000    -0.026000000
H     3.516000000    -1.411000000     0.341000000
C     1.584000000    -0.781000000     0.908000000
H     1.827000000    -0.619000000     1.955000000
C     0.324000000    -0.442000000     0.468000000
H    -0.541000000    -0.168000000     1.178000000
C     0.033000000    -0.460000000    -0.911000000
H    -0.975000000    -0.190000000    -1.215000000
C     0.972000000    -1.016000000    -1.862000000
H     0.741000000    -1.076000000    -2.923000000
C     2.212000000    -1.450000000    -1.349000000
C     3.141000000    -2.157000000    -2.303000000
O     2.660000000    -2.923000000    -3.127000000
O     4.331000000    -2.013000000    -2.269000000
