14
-80.86896
C    -2.196000000     0.834000000    -0.373000000
H    -2.997000000     0.414000000    -0.976000000
C    -0.941000000     0.146000000    -0.429000000
H    -0.788000000    -0.824000000    -0.896000000
C     0.177000000     0.653000000     0.355000000
H     1.034000000     0.008000000     0.518000000
C     0.047000000     1.944000000     0.965000000
H     0.864000000     2.436000000     1.486000000
C    -1.192000000     2.474000000     1.080000000
H    -1.344000000     3.332000000     1.730000000
C    -2.276000000     2.008000000     0.327000000
C    -3.621000000     2.783000000     0.400000000
O    -3.782000000     3.834000000     1.024000000
O    -4.464000000     2.432000000    -0.362000000
