14
-74.78706
C     1.970000000    -2.326000000     0.504000000
H     2.821000000    -2.673000000     1.085000000
C     1.607000000    -1.010000000     0.561000000
H     2.069000000    -0.405000000     1.337000000
C     0.498000000    -0.493000000    -0.141000000
H     0.201000000     0.520000000    -0.033000000
C    -0.114000000    -1.285000000    -1.100000000
H    -0.792000000    -0.849000000    -1.830000000
C     0.347000000    -2.629000000    -1.211000000
H    -0.068000000    -3.266000000    -1.989000000
C     1.440000000    -3.109000000    -0.449000000
C     1.848000000    -4.577000000    -0.590000000
O     1.263000000    -5.275000000    -1.344000000
O     2.982000000    -4.851000000    -0.313000000
