14
-87.38627
C     1.018000000    -1.643000000    -0.006000000
H     1.928000000    -1.928000000     0.516000000
C     0.424000000    -0.406000000     0.140000000
H     0.717000000     0.292000000     0.920000000
C    -0.722000000    -0.028000000    -0.667000000
H    -1.213000000     0.936000000    -0.553000000
C    -1.252000000    -0.923000000    -1.574000000
H    -2.134000000    -0.684000000    -2.163000000
C    -0.506000000    -2.131000000    -1.797000000
H    -0.783000000    -2.827000000    -2.585000000
C     0.592000000    -2.505000000    -1.000000000
C     1.318000000    -3.843000000    -1.305000000
O     0.701000000    -4.828000000    -1.654000000
O     2.516000000    -3.901000000    -1.248000000
