14
-86.15019
C     1.952000000    -1.719000000    -0.238000000
H     2.976000000    -2.026000000    -0.042000000
C     1.478000000    -0.501000000     0.259000000
H     2.163000000     0.157000000     0.787000000
C     0.198000000    -0.114000000     0.015000000
H    -0.030000000     0.950000000     0.327000000
C    -0.668000000    -0.921000000    -0.714000000
H    -1.665000000    -0.562000000    -0.955000000
C    -0.161000000    -2.157000000    -1.194000000
H    -0.854000000    -2.768000000    -1.767000000
C     1.166000000    -2.578000000    -0.974000000
C     1.564000000    -3.905000000    -1.450000000
O     0.888000000    -4.477000000    -2.305000000
O     2.573000000    -4.450000000    -1.084000000
