14
-73.15163
C    -2.455000000     1.328000000     0.275000000
H    -3.380000000     0.841000000    -0.024000000
C    -1.309000000     0.525000000     0.215000000
H    -1.525000000    -0.529000000     0.060000000
C    -0.034000000     1.113000000     0.247000000
H     0.820000000     0.562000000    -0.090000000
C     0.120000000     2.432000000     0.602000000
H     1.110000000     2.873000000     0.690000000
C    -1.060000000     3.207000000     0.800000000
H    -0.890000000     4.279000000     0.853000000
C    -2.347000000     2.680000000     0.630000000
C    -3.555000000     3.490000000     0.521000000
O    -3.461000000     4.708000000     0.341000000
O    -4.584000000     3.014000000     0.234000000
