14
-71.93681
C     1.698000000    -1.308000000    -0.547000000
H     2.763000000    -1.345000000    -0.333000000
C     0.863000000    -0.511000000     0.265000000
H     1.328000000     0.145000000     0.997000000
C    -0.464000000    -0.214000000    -0.118000000
H    -1.049000000     0.361000000     0.540000000
C    -1.049000000    -0.774000000    -1.281000000
H    -2.095000000    -0.614000000    -1.527000000
C    -0.179000000    -1.502000000    -2.169000000
H    -0.560000000    -1.888000000    -3.112000000
C     1.087000000    -1.840000000    -1.744000000
C     1.879000000    -2.834000000    -2.609000000
O     1.185000000    -3.575000000    -3.278000000
O     2.893000000    -3.227000000    -2.148000000
