14
-87.29937
C     1.930000000    -1.344000000     0.210000000
H     2.937000000    -1.545000000     0.566000000
C     1.226000000    -0.216000000     0.616000000
H     1.717000000     0.509000000     1.260000000
C    -0.006000000     0.061000000     0.157000000
H    -0.492000000     0.988000000     0.366000000
C    -0.669000000    -0.844000000    -0.627000000
H    -1.689000000    -0.649000000    -0.950000000
C    -0.041000000    -2.040000000    -0.929000000
H    -0.570000000    -2.799000000    -1.498000000
C     1.332000000    -2.229000000    -0.642000000
C     1.971000000    -3.536000000    -1.064000000
O     1.323000000    -4.415000000    -1.617000000
O     3.143000000    -3.680000000    -0.869000000
