14
-68.15236
C     1.391000000    -1.909000000    -0.682000000
H     2.303000000    -2.474000000    -0.505000000
C     1.027000000    -0.820000000     0.142000000
H     1.709000000    -0.785000000     0.988000000
C    -0.121000000    -0.142000000    -0.135000000
H    -0.376000000     0.715000000     0.516000000
C    -0.944000000    -0.533000000    -1.148000000
H    -1.914000000    -0.049000000    -1.229000000
C    -0.503000000    -1.495000000    -2.068000000
H    -1.068000000    -1.649000000    -2.984000000
C     0.672000000    -2.226000000    -1.804000000
C     1.126000000    -3.327000000    -2.752000000
O     0.541000000    -3.528000000    -3.725000000
O     1.843000000    -4.200000000    -2.378000000
