14
-85.07795
C     1.543000000    -1.244000000    -0.339000000
H     2.446000000    -1.843000000    -0.258000000
C     1.224000000    -0.209000000     0.543000000
H     1.869000000     0.002000000     1.393000000
C     0.091000000     0.549000000     0.409000000
H    -0.046000000     1.411000000     1.085000000
C    -0.714000000     0.327000000    -0.627000000
H    -1.606000000     0.944000000    -0.703000000
C    -0.453000000    -0.708000000    -1.510000000
H    -1.217000000    -0.942000000    -2.247000000
C     0.660000000    -1.518000000    -1.346000000
C     0.879000000    -2.614000000    -2.361000000
O     0.195000000    -2.725000000    -3.353000000
O     1.793000000    -3.366000000    -2.165000000
