14
-91.61165
C     1.999000000    -1.776000000    -1.254000000
H     2.981000000    -2.151000000    -1.530000000
C     1.955000000    -0.948000000    -0.163000000
H     2.863000000    -0.668000000     0.365000000
C     0.723000000    -0.428000000     0.250000000
H     0.696000000     0.103000000     1.227000000
C    -0.428000000    -0.734000000    -0.513000000
H    -1.375000000    -0.344000000    -0.148000000
C    -0.377000000    -1.537000000    -1.622000000
H    -1.302000000    -1.744000000    -2.154000000
C     0.830000000    -2.169000000    -1.944000000
C     0.914000000    -3.171000000    -3.079000000
O    -0.043000000    -3.381000000    -3.817000000
O     1.994000000    -3.679000000    -3.271000000
