14
-87.04635
C     2.219000000    -1.575000000    -0.909000000
H     3.295000000    -1.531000000    -1.058000000
C     1.645000000    -0.743000000     0.102000000
H     2.365000000    -0.199000000     0.708000000
C     0.244000000    -0.554000000     0.222000000
H    -0.112000000     0.126000000     0.937000000
C    -0.576000000    -1.323000000    -0.579000000
H    -1.659000000    -1.240000000    -0.538000000
C     0.036000000    -2.244000000    -1.465000000
H    -0.652000000    -2.881000000    -2.016000000
C     1.423000000    -2.319000000    -1.722000000
C     2.016000000    -3.333000000    -2.630000000
O     1.257000000    -3.719000000    -3.496000000
O     3.140000000    -3.716000000    -2.484000000
