14
-84.74830
C     1.842000000    -1.293000000    -1.036000000
H     2.862000000    -1.631000000    -1.202000000
C     1.507000000    -0.281000000    -0.052000000
H     2.312000000     0.169000000     0.524000000
C     0.194000000     0.151000000     0.025000000
H    -0.173000000     0.880000000     0.740000000
C    -0.768000000    -0.404000000    -0.792000000
H    -1.798000000    -0.058000000    -0.754000000
C    -0.460000000    -1.397000000    -1.742000000
H    -1.205000000    -1.909000000    -2.345000000
C     0.851000000    -1.880000000    -1.867000000
C     1.150000000    -3.027000000    -2.805000000
O     0.483000000    -3.283000000    -3.723000000
O     2.239000000    -3.602000000    -2.650000000
