14
-76.94380
C     1.769000000    -1.337000000    -0.410000000
H     2.811000000    -1.645000000    -0.380000000
C     1.412000000    -0.281000000     0.404000000
H     2.163000000     0.222000000     1.008000000
C     0.127000000     0.199000000     0.407000000
H    -0.121000000     1.083000000     0.995000000
C    -0.774000000    -0.285000000    -0.556000000
H    -1.751000000     0.188000000    -0.605000000
C    -0.406000000    -1.363000000    -1.408000000
H    -1.123000000    -1.868000000    -2.051000000
C     0.866000000    -1.933000000    -1.301000000
C     1.266000000    -3.060000000    -2.148000000
O     0.462000000    -3.865000000    -2.589000000
O     2.381000000    -3.518000000    -2.062000000
