14
-86.46615
C     1.108000000    -2.628000000    -0.750000000
H     2.006000000    -3.239000000    -0.798000000
C     0.930000000    -1.648000000     0.249000000
H     1.668000000    -1.501000000     1.033000000
C    -0.116000000    -0.744000000     0.240000000
H    -0.125000000     0.174000000     0.849000000
C    -1.143000000    -0.883000000    -0.633000000
H    -1.990000000    -0.207000000    -0.549000000
C    -1.062000000    -1.893000000    -1.634000000
H    -1.889000000    -1.981000000    -2.334000000
C     0.064000000    -2.749000000    -1.683000000
C     0.081000000    -3.758000000    -2.802000000
O    -0.476000000    -3.644000000    -3.898000000
O     0.754000000    -4.748000000    -2.621000000
