14
-86.00221
C     2.517000000    -1.602000000    -0.559000000
H     3.414000000    -2.197000000    -0.404000000
C     2.140000000    -0.592000000     0.313000000
H     2.657000000    -0.239000000     1.201000000
C     0.925000000     0.063000000     0.099000000
H     0.611000000     0.767000000     0.840000000
C     0.104000000    -0.241000000    -0.994000000
H    -0.854000000     0.254000000    -1.131000000
C     0.564000000    -1.130000000    -1.985000000
H    -0.093000000    -1.302000000    -2.834000000
C     1.766000000    -1.844000000    -1.764000000
C     2.099000000    -3.043000000    -2.683000000
O     1.370000000    -3.324000000    -3.585000000
O     3.131000000    -3.646000000    -2.548000000
