14
-78.24880
C     2.425000000    -1.097000000    -0.632000000
H     3.316000000    -1.672000000    -0.392000000
C     1.685000000    -0.629000000     0.422000000
H     2.032000000    -0.811000000     1.436000000
C     0.512000000     0.120000000     0.176000000
H     0.042000000     0.500000000     1.060000000
C    -0.006000000     0.193000000    -1.143000000
H    -0.979000000     0.646000000    -1.308000000
C     0.685000000    -0.361000000    -2.194000000
H     0.237000000    -0.218000000    -3.174000000
C     1.956000000    -1.018000000    -1.955000000
C     2.659000000    -1.774000000    -3.007000000
O     2.155000000    -1.936000000    -4.101000000
O     3.618000000    -2.354000000    -2.704000000
