14
-85.91466
C    -2.272000000     0.315000000    -0.934000000
H    -3.172000000    -0.233000000    -1.201000000
C    -1.027000000    -0.323000000    -0.920000000
H    -1.012000000    -1.407000000    -1.000000000
C     0.151000000     0.306000000    -0.638000000
H     1.093000000    -0.133000000    -0.451000000
C     0.070000000     1.637000000    -0.248000000
H     0.982000000     2.164000000     0.023000000
C    -1.132000000     2.329000000    -0.162000000
H    -1.051000000     3.375000000     0.122000000
C    -2.277000000     1.682000000    -0.620000000
C    -3.498000000     2.496000000    -0.722000000
O    -3.446000000     3.752000000    -0.607000000
O    -4.567000000     2.013000000    -1.121000000
