14
-87.16339
C     2.412000000    -1.592000000    -0.265000000
H     3.081000000    -1.927000000     0.524000000
C     1.403000000    -0.740000000     0.096000000
H     1.287000000    -0.450000000     1.137000000
C     0.576000000    -0.282000000    -0.909000000
H    -0.214000000     0.345000000    -0.663000000
C     0.820000000    -0.668000000    -2.198000000
H     0.181000000    -0.316000000    -3.004000000
C     1.777000000    -1.585000000    -2.508000000
H     1.914000000    -1.813000000    -3.562000000
C     2.662000000    -1.995000000    -1.549000000
C     3.818000000    -2.826000000    -1.987000000
O     3.972000000    -3.024000000    -3.217000000
O     4.524000000    -3.394000000    -1.181000000
