14
-89.03434
C     2.267000000    -1.022000000    -0.860000000
H     3.209000000    -1.179000000    -0.340000000
C     1.263000000    -0.150000000    -0.335000000
H     1.354000000     0.305000000     0.647000000
C     0.054000000    -0.115000000    -0.980000000
H    -0.721000000     0.540000000    -0.501000000
C    -0.114000000    -0.752000000    -2.210000000
H    -1.072000000    -0.737000000    -2.724000000
C     0.978000000    -1.440000000    -2.807000000
H     0.869000000    -1.732000000    -3.848000000
C     2.169000000    -1.603000000    -2.085000000
C     3.272000000    -2.565000000    -2.593000000
O     3.310000000    -3.001000000    -3.760000000
O     4.142000000    -2.899000000    -1.815000000
