14
-82.70869
C     2.140000000    -0.543000000    -0.059000000
H     3.041000000    -0.714000000     0.525000000
C     0.991000000     0.030000000     0.472000000
H     1.111000000     0.478000000     1.455000000
C    -0.221000000     0.148000000    -0.268000000
H    -1.056000000     0.575000000     0.173000000
C    -0.291000000    -0.430000000    -1.511000000
H    -1.199000000    -0.302000000    -2.096000000
C     0.860000000    -1.050000000    -2.054000000
H     0.838000000    -1.463000000    -3.059000000
C     2.026000000    -1.121000000    -1.314000000
C     3.295000000    -1.874000000    -1.769000000
O     3.648000000    -1.835000000    -2.879000000
O     3.810000000    -2.601000000    -0.967000000
