14
-87.10747
C     1.771000000    -0.980000000    -0.295000000
H     2.774000000    -0.824000000     0.094000000
C     0.736000000    -0.188000000     0.221000000
H     0.893000000     0.427000000     1.104000000
C    -0.572000000    -0.378000000    -0.223000000
H    -1.327000000     0.206000000     0.247000000
C    -0.766000000    -1.241000000    -1.313000000
H    -1.802000000    -1.367000000    -1.616000000
C     0.298000000    -2.036000000    -1.850000000
H     0.129000000    -2.871000000    -2.526000000
C     1.539000000    -1.947000000    -1.248000000
C     2.675000000    -2.903000000    -1.661000000
O     2.417000000    -3.826000000    -2.400000000
O     3.785000000    -2.631000000    -1.343000000
