14
-83.43978
C     2.128000000    -1.284000000    -0.207000000
H     3.035000000    -1.501000000     0.353000000
C     1.104000000    -0.622000000     0.391000000
H     1.135000000    -0.347000000     1.442000000
C    -0.028000000    -0.356000000    -0.356000000
H    -0.872000000     0.140000000     0.171000000
C    -0.051000000    -0.654000000    -1.728000000
H    -0.965000000    -0.451000000    -2.281000000
C     1.085000000    -1.228000000    -2.321000000
H     1.044000000    -1.654000000    -3.320000000
C     2.217000000    -1.510000000    -1.549000000
C     3.338000000    -2.418000000    -2.039000000
O     3.301000000    -2.711000000    -3.255000000
O     4.064000000    -3.130000000    -1.340000000
