14
-85.89367
C     1.184000000    -1.194000000     0.298000000
H     1.944000000    -1.491000000     1.017000000
C     0.440000000     0.038000000     0.401000000
H     0.668000000     0.734000000     1.204000000
C    -0.543000000     0.366000000    -0.502000000
H    -1.122000000     1.313000000    -0.340000000
C    -0.881000000    -0.494000000    -1.536000000
H    -1.567000000    -0.187000000    -2.321000000
C    -0.206000000    -1.734000000    -1.667000000
H    -0.416000000    -2.370000000    -2.523000000
C     0.838000000    -2.070000000    -0.732000000
C     1.547000000    -3.391000000    -0.898000000
O     1.279000000    -4.144000000    -1.882000000
O     2.168000000    -3.983000000    -0.001000000
