14
-89.40743
C     1.173000000    -1.712000000     0.278000000
H     1.945000000    -2.073000000     0.952000000
C     0.713000000    -0.440000000     0.583000000
H     1.097000000     0.113000000     1.437000000
C    -0.225000000     0.198000000    -0.331000000
H    -0.580000000     1.151000000    -0.197000000
C    -0.763000000    -0.544000000    -1.412000000
H    -1.591000000    -0.142000000    -1.989000000
C    -0.302000000    -1.847000000    -1.599000000
H    -0.701000000    -2.464000000    -2.400000000
C     0.755000000    -2.412000000    -0.871000000
C     1.228000000    -3.874000000    -1.177000000
O     1.233000000    -4.180000000    -2.326000000
O     1.491000000    -4.581000000    -0.212000000
