14
-84.21826
C     1.797000000    -1.807000000     0.335000000
H     2.398000000    -2.523000000     0.890000000
C     1.578000000    -0.557000000     0.874000000
H     1.969000000    -0.361000000     1.869000000
C     0.634000000     0.297000000     0.250000000
H     0.496000000     1.301000000     0.594000000
C     0.045000000    -0.130000000    -0.960000000
H    -0.724000000     0.518000000    -1.374000000
C     0.401000000    -1.307000000    -1.605000000
H     0.015000000    -1.702000000    -2.542000000
C     1.189000000    -2.238000000    -0.887000000
C     1.497000000    -3.629000000    -1.413000000
O     1.195000000    -3.927000000    -2.586000000
O     2.226000000    -4.397000000    -0.854000000
