14
-86.22367
C    -0.074000000    -2.344000000     0.133000000
H    -0.266000000    -2.983000000     0.991000000
C    -0.234000000    -0.989000000     0.369000000
H    -0.738000000    -0.553000000     1.228000000
C     0.144000000    -0.048000000    -0.628000000
H     0.147000000     1.009000000    -0.320000000
C     0.721000000    -0.507000000    -1.781000000
H     0.958000000     0.235000000    -2.538000000
C     0.960000000    -1.836000000    -1.996000000
H     1.516000000    -2.154000000    -2.875000000
C     0.483000000    -2.791000000    -1.070000000
C     0.638000000    -4.281000000    -1.361000000
O     0.779000000    -4.691000000    -2.479000000
O     0.962000000    -4.957000000    -0.379000000
