14
-88.89243
C    -2.703000000     0.624000000    -1.223000000
H    -3.622000000     0.428000000    -1.770000000
C    -1.634000000    -0.255000000    -1.182000000
H    -1.750000000    -1.226000000    -1.656000000
C    -0.450000000     0.063000000    -0.458000000
H     0.377000000    -0.645000000    -0.496000000
C    -0.282000000     1.328000000     0.121000000
H     0.600000000     1.770000000     0.577000000
C    -1.442000000     2.152000000     0.162000000
H    -1.296000000     3.135000000     0.602000000
C    -2.638000000     1.833000000    -0.494000000
C    -3.705000000     2.800000000    -0.732000000
O    -3.680000000     3.935000000    -0.236000000
O    -4.697000000     2.473000000    -1.404000000
