14
-82.74264
C     1.016000000    -1.773000000     0.343000000
H     1.665000000    -2.052000000     1.169000000
C     0.708000000    -0.407000000     0.239000000
H     1.134000000     0.295000000     0.951000000
C    -0.252000000     0.011000000    -0.683000000
H    -0.505000000     1.025000000    -0.676000000
C    -0.847000000    -0.843000000    -1.554000000
H    -1.603000000    -0.461000000    -2.235000000
C    -0.555000000    -2.196000000    -1.486000000
H    -1.133000000    -2.908000000    -2.070000000
C     0.299000000    -2.716000000    -0.493000000
C     0.494000000    -4.217000000    -0.266000000
O    -0.300000000    -4.933000000    -0.790000000
O     1.523000000    -4.668000000     0.167000000
