14
-81.22080
C     0.853000000    -1.197000000     0.399000000
H     1.759000000    -1.216000000     1.000000000
C     0.177000000    -0.006000000     0.223000000
H     0.490000000     0.890000000     0.753000000
C    -0.840000000     0.074000000    -0.652000000
H    -1.399000000     1.009000000    -0.654000000
C    -1.100000000    -1.067000000    -1.398000000
H    -1.856000000    -0.999000000    -2.177000000
C    -0.527000000    -2.321000000    -1.216000000
H    -0.915000000    -3.138000000    -1.819000000
C     0.519000000    -2.353000000    -0.301000000
C     1.408000000    -3.566000000    -0.312000000
O     1.213000000    -4.477000000    -1.100000000
O     2.273000000    -3.717000000     0.505000000
