14
-89.79417
C     1.233000000    -0.905000000     0.644000000
H     2.067000000    -0.992000000     1.336000000
C     0.480000000     0.261000000     0.516000000
H     0.763000000     1.135000000     1.096000000
C    -0.518000000     0.392000000    -0.432000000
H    -1.116000000     1.358000000    -0.486000000
C    -0.969000000    -0.665000000    -1.151000000
H    -1.818000000    -0.663000000    -1.830000000
C    -0.326000000    -1.855000000    -0.962000000
H    -0.588000000    -2.735000000    -1.545000000
C     0.787000000    -2.001000000    -0.115000000
C     1.398000000    -3.352000000     0.183000000
O     0.770000000    -4.319000000    -0.249000000
O     2.412000000    -3.508000000     0.862000000
