14
-77.73029
C     0.965000000    -2.080000000     0.604000000
H     1.623000000    -2.522000000     1.348000000
C     0.702000000    -0.654000000     0.670000000
H     1.170000000    -0.001000000     1.402000000
C    -0.075000000    -0.068000000    -0.348000000
H    -0.211000000     1.062000000    -0.411000000
C    -0.702000000    -0.908000000    -1.221000000
H    -1.428000000    -0.505000000    -1.923000000
C    -0.387000000    -2.308000000    -1.336000000
H    -0.736000000    -2.852000000    -2.210000000
C     0.506000000    -2.907000000    -0.429000000
C     0.883000000    -4.375000000    -0.459000000
O     0.392000000    -5.151000000    -1.231000000
O     1.765000000    -4.865000000     0.214000000
