14
-86.48586
C     1.250000000    -0.997000000     0.719000000
H     2.121000000    -0.871000000     1.356000000
C     0.536000000     0.218000000     0.403000000
H     0.896000000     1.072000000     0.971000000
C    -0.567000000     0.123000000    -0.434000000
H    -1.126000000     0.946000000    -0.714000000
C    -0.943000000    -1.115000000    -0.937000000
H    -1.811000000    -1.125000000    -1.592000000
C    -0.225000000    -2.216000000    -0.720000000
H    -0.542000000    -3.059000000    -1.328000000
C     0.952000000    -2.164000000     0.056000000
C     1.809000000    -3.388000000     0.125000000
O     1.604000000    -4.332000000    -0.676000000
O     2.710000000    -3.448000000     0.942000000
