14
-89.23806
C     1.377000000    -0.340000000     0.477000000
H     2.275000000    -0.313000000     1.088000000
C     0.573000000     0.780000000     0.361000000
H     0.761000000     1.706000000     0.899000000
C    -0.513000000     0.717000000    -0.494000000
H    -1.218000000     1.510000000    -0.566000000
C    -0.794000000    -0.415000000    -1.198000000
H    -1.593000000    -0.585000000    -1.914000000
C     0.044000000    -1.545000000    -1.113000000
H    -0.231000000    -2.340000000    -1.801000000
C     1.146000000    -1.529000000    -0.277000000
C     2.043000000    -2.718000000    -0.245000000
O     1.893000000    -3.568000000    -1.134000000
O     2.898000000    -2.818000000     0.586000000
