14
-89.97815
C     1.427000000    -2.287000000     0.921000000
H     2.232000000    -2.823000000     1.417000000
C     1.495000000    -0.923000000     0.637000000
H     2.401000000    -0.403000000     0.941000000
C     0.421000000    -0.313000000     0.013000000
H     0.439000000     0.783000000    -0.307000000
C    -0.708000000    -1.021000000    -0.361000000
H    -1.576000000    -0.556000000    -0.821000000
C    -0.740000000    -2.391000000    -0.179000000
H    -1.577000000    -2.936000000    -0.609000000
C     0.342000000    -3.083000000     0.444000000
C     0.318000000    -4.566000000     0.484000000
O    -0.521000000    -5.195000000    -0.119000000
O     1.233000000    -5.150000000     1.062000000
