14
-84.90857
C    -2.446000000     0.680000000    -0.541000000
H    -3.402000000     0.213000000    -0.765000000
C    -1.359000000    -0.098000000    -0.421000000
H    -1.362000000    -1.166000000    -0.624000000
C    -0.170000000     0.460000000    -0.017000000
H     0.755000000    -0.108000000     0.164000000
C    -0.064000000     1.844000000     0.280000000
H     0.870000000     2.355000000     0.501000000
C    -1.154000000     2.644000000     0.116000000
H    -1.088000000     3.713000000     0.302000000
C    -2.320000000     2.069000000    -0.343000000
C    -3.493000000     3.011000000    -0.655000000
O    -3.480000000     4.220000000    -0.494000000
O    -4.478000000     2.467000000    -1.058000000
