14
-86.17015
C     1.487000000    -0.608000000     0.729000000
H     2.337000000    -0.598000000     1.406000000
C     0.642000000     0.427000000     0.601000000
H     0.889000000     1.372000000     1.079000000
C    -0.541000000     0.341000000    -0.091000000
H    -1.227000000     1.194000000    -0.140000000
C    -0.903000000    -0.813000000    -0.738000000
H    -1.855000000    -0.905000000    -1.254000000
C     0.012000000    -1.894000000    -0.671000000
H    -0.194000000    -2.817000000    -1.207000000
C     1.100000000    -1.805000000     0.067000000
C     2.031000000    -3.053000000     0.145000000
O     1.524000000    -4.161000000    -0.021000000
O     3.212000000    -2.979000000     0.401000000
