14
-80.33536
C     1.835000000    -1.571000000    -0.834000000
H     2.729000000    -1.949000000    -1.326000000
C     1.717000000    -0.152000000    -0.817000000
H     2.398000000     0.558000000    -1.279000000
C     0.514000000     0.374000000    -0.302000000
H     0.323000000     1.387000000    -0.309000000
C    -0.543000000    -0.472000000     0.076000000
H    -1.497000000    -0.035000000     0.358000000
C    -0.370000000    -1.853000000    -0.005000000
H    -1.179000000    -2.494000000     0.334000000
C     0.779000000    -2.407000000    -0.501000000
C     0.951000000    -3.836000000    -0.316000000
O     0.044000000    -4.544000000     0.076000000
O     1.969000000    -4.369000000    -0.669000000
