14
-78.23652
C    -2.056000000     0.431000000    -0.902000000
H    -3.017000000     0.061000000    -1.248000000
C    -0.942000000    -0.444000000    -0.661000000
H    -1.128000000    -1.423000000    -1.094000000
C     0.254000000     0.071000000    -0.153000000
H     1.192000000    -0.528000000    -0.146000000
C     0.379000000     1.390000000     0.324000000
H     1.320000000     1.790000000     0.693000000
C    -0.771000000     2.190000000     0.335000000
H    -0.790000000     3.242000000     0.608000000
C    -2.010000000     1.775000000    -0.343000000
C    -3.213000000     2.687000000    -0.510000000
O    -3.299000000     3.728000000     0.082000000
O    -4.155000000     2.411000000    -1.243000000
