14
-83.35730
C     1.703000000    -1.767000000     0.381000000
H     2.540000000    -2.411000000     0.640000000
C     1.789000000    -0.396000000     0.377000000
H     2.719000000     0.088000000     0.662000000
C     0.673000000     0.363000000     0.107000000
H     0.736000000     1.460000000     0.131000000
C    -0.465000000    -0.269000000    -0.269000000
H    -1.329000000     0.374000000    -0.420000000
C    -0.562000000    -1.713000000    -0.349000000
H    -1.410000000    -2.294000000    -0.703000000
C     0.579000000    -2.495000000    -0.076000000
C     0.535000000    -3.999000000     0.027000000
O    -0.435000000    -4.650000000    -0.285000000
O     1.605000000    -4.541000000     0.168000000
