14
-87.45258
C     1.860000000    -1.222000000     0.872000000
H     2.756000000    -1.490000000     1.425000000
C     1.168000000     0.011000000     1.033000000
H     1.479000000     0.699000000     1.814000000
C     0.059000000     0.345000000     0.345000000
H    -0.460000000     1.359000000     0.404000000
C    -0.333000000    -0.483000000    -0.685000000
H    -1.089000000    -0.135000000    -1.385000000
C     0.247000000    -1.753000000    -0.904000000
H    -0.155000000    -2.449000000    -1.635000000
C     1.383000000    -2.043000000    -0.138000000
C     2.042000000    -3.331000000    -0.439000000
O     1.861000000    -3.875000000    -1.519000000
O     2.809000000    -3.877000000     0.397000000
