14
-89.46176
C     1.373000000    -1.187000000    -0.148000000
H     2.332000000    -1.686000000    -0.032000000
C     1.409000000     0.206000000    -0.305000000
H     2.387000000     0.675000000    -0.363000000
C     0.181000000     0.886000000    -0.220000000
H     0.171000000     1.927000000    -0.288000000
C    -1.028000000     0.156000000    -0.200000000
H    -1.996000000     0.644000000    -0.281000000
C    -0.979000000    -1.221000000    -0.262000000
H    -1.853000000    -1.855000000    -0.136000000
C     0.214000000    -1.958000000    -0.164000000
C     0.292000000    -3.454000000    -0.126000000
O    -0.730000000    -4.103000000     0.102000000
O     1.314000000    -4.038000000    -0.492000000
