14
-81.92491
C     0.721000000    -1.807000000    -1.199000000
H     0.862000000    -2.325000000    -2.145000000
C     0.531000000    -0.487000000    -0.960000000
H     0.334000000     0.220000000    -1.761000000
C     0.390000000    -0.071000000     0.329000000
H     0.093000000     0.902000000     0.498000000
C     0.444000000    -1.007000000     1.397000000
H     0.440000000    -0.531000000     2.375000000
C     0.731000000    -2.291000000     1.104000000
H     0.760000000    -3.011000000     1.917000000
C     0.909000000    -2.735000000    -0.209000000
C     1.122000000    -4.235000000    -0.488000000
O     1.490000000    -5.048000000     0.413000000
O     1.223000000    -4.607000000    -1.702000000
