14
-84.45735
C     1.406000000    -1.862000000    -0.531000000
H     2.089000000    -2.484000000    -1.105000000
C     0.634000000    -0.898000000    -1.186000000
H     0.609000000    -0.757000000    -2.264000000
C    -0.199000000    -0.088000000    -0.388000000
H    -0.753000000     0.770000000    -0.824000000
C    -0.255000000    -0.245000000     1.004000000
H    -0.836000000     0.467000000     1.584000000
C     0.495000000    -1.276000000     1.551000000
H     0.300000000    -1.342000000     2.618000000
C     1.274000000    -2.147000000     0.829000000
C     1.974000000    -3.262000000     1.526000000
O     1.869000000    -3.403000000     2.706000000
O     2.683000000    -4.064000000     0.930000000
