14
-88.49394
C     0.636000000    -2.190000000    -0.820000000
H     1.220000000    -2.620000000    -1.630000000
C     0.398000000    -0.819000000    -0.758000000
H     0.663000000    -0.228000000    -1.630000000
C    -0.307000000    -0.266000000     0.297000000
H    -0.522000000     0.798000000     0.289000000
C    -0.634000000    -0.974000000     1.434000000
H    -1.003000000    -0.617000000     2.392000000
C    -0.338000000    -2.354000000     1.356000000
H    -0.561000000    -2.878000000     2.282000000
C     0.331000000    -2.970000000     0.266000000
C     0.739000000    -4.425000000     0.253000000
O     0.532000000    -5.178000000     1.239000000
O     1.004000000    -4.918000000    -0.873000000
