14
-83.48252
C     0.242000000    -2.969000000    -0.902000000
H     0.293000000    -3.555000000    -1.816000000
C     0.421000000    -1.618000000    -1.119000000
H     0.647000000    -1.209000000    -2.101000000
C     0.322000000    -0.776000000    -0.007000000
H     0.601000000     0.226000000    -0.166000000
C     0.188000000    -1.310000000     1.280000000
H     0.117000000    -0.605000000     2.104000000
C    -0.049000000    -2.657000000     1.462000000
H    -0.233000000    -3.105000000     2.435000000
C     0.029000000    -3.522000000     0.344000000
C    -0.224000000    -5.045000000     0.419000000
O    -0.360000000    -5.426000000     1.526000000
O    -0.466000000    -5.787000000    -0.523000000
