14
-88.95523
C    -1.637000000     0.055000000    -0.685000000
H    -2.419000000    -0.418000000    -1.274000000
C    -0.632000000    -0.705000000    -0.074000000
H    -0.579000000    -1.789000000    -0.116000000
C     0.435000000    -0.111000000     0.485000000
H     1.136000000    -0.794000000     0.901000000
C     0.577000000     1.268000000     0.428000000
H     1.503000000     1.685000000     0.815000000
C    -0.392000000     2.067000000    -0.119000000
H    -0.255000000     3.144000000    -0.064000000
C    -1.525000000     1.481000000    -0.684000000
C    -2.535000000     2.400000000    -1.339000000
O    -2.496000000     3.614000000    -1.225000000
O    -3.502000000     1.852000000    -1.928000000
