14
-88.52451
C    -0.207000000    -1.806000000    -1.312000000
H     0.061000000    -2.105000000    -2.322000000
C     0.091000000    -0.507000000    -0.939000000
H     0.450000000     0.289000000    -1.587000000
C    -0.051000000    -0.135000000     0.360000000
H     0.177000000     0.858000000     0.690000000
C    -0.363000000    -1.101000000     1.334000000
H    -0.357000000    -0.830000000     2.387000000
C    -0.570000000    -2.392000000     0.951000000
H    -0.825000000    -3.198000000     1.633000000
C    -0.544000000    -2.809000000    -0.366000000
C    -0.723000000    -4.280000000    -0.754000000
O    -1.091000000    -5.080000000     0.106000000
O    -0.448000000    -4.669000000    -1.865000000
