14
-89.22592
C     0.187000000    -2.474000000    -1.609000000
H     0.371000000    -3.153000000    -2.438000000
C     0.309000000    -1.095000000    -1.777000000
H     0.532000000    -0.785000000    -2.795000000
C    -0.011000000    -0.207000000    -0.727000000
H     0.074000000     0.893000000    -0.908000000
C    -0.366000000    -0.665000000     0.477000000
H    -0.734000000     0.001000000     1.254000000
C    -0.524000000    -2.019000000     0.729000000
H    -1.013000000    -2.447000000     1.599000000
C    -0.200000000    -2.947000000    -0.316000000
C    -0.321000000    -4.457000000    -0.064000000
O    -0.247000000    -4.800000000     1.151000000
O    -0.433000000    -5.273000000    -0.948000000
