14
-85.82638
C    -0.612000000    -2.372000000    -1.044000000
H    -0.529000000    -3.047000000    -1.892000000
C    -0.172000000    -1.025000000    -1.310000000
H     0.093000000    -0.713000000    -2.317000000
C    -0.059000000    -0.107000000    -0.274000000
H     0.324000000     0.873000000    -0.423000000
C    -0.319000000    -0.486000000     1.013000000
H    -0.187000000     0.248000000     1.803000000
C    -0.513000000    -1.825000000     1.308000000
H    -0.541000000    -2.125000000     2.352000000
C    -0.659000000    -2.777000000     0.283000000
C    -0.839000000    -4.198000000     0.625000000
O    -0.719000000    -4.659000000     1.763000000
O    -1.008000000    -4.918000000    -0.331000000
