14
-90.26651
C    -0.040000000    -1.890000000    -1.493000000
H     0.185000000    -2.523000000    -2.348000000
C     0.567000000    -0.640000000    -1.499000000
H     1.141000000    -0.414000000    -2.394000000
C     0.471000000     0.218000000    -0.426000000
H     1.017000000     1.133000000    -0.454000000
C    -0.388000000    -0.128000000     0.622000000
H    -0.640000000     0.624000000     1.365000000
C    -1.079000000    -1.371000000     0.603000000
H    -1.831000000    -1.633000000     1.343000000
C    -0.954000000    -2.266000000    -0.493000000
C    -1.553000000    -3.669000000    -0.476000000
O    -2.002000000    -4.070000000     0.601000000
O    -1.607000000    -4.360000000    -1.462000000
