14
-79.82353
C     0.888000000    -2.307000000    -0.697000000
H     1.349000000    -2.957000000    -1.436000000
C     0.489000000    -1.057000000    -1.226000000
H     0.863000000    -0.837000000    -2.222000000
C    -0.046000000    -0.089000000    -0.441000000
H    -0.247000000     0.833000000    -0.957000000
C    -0.283000000    -0.304000000     0.942000000
H    -0.715000000     0.494000000     1.540000000
C    -0.086000000    -1.628000000     1.443000000
H    -0.289000000    -1.813000000     2.495000000
C     0.535000000    -2.616000000     0.640000000
C     0.942000000    -3.947000000     1.175000000
O     1.000000000    -4.186000000     2.349000000
O     0.916000000    -4.900000000     0.417000000
