14
-92.39440
C     1.359000000    -2.005000000    -1.969000000
H     1.679000000    -2.602000000    -2.819000000
C     0.979000000    -0.658000000    -2.105000000
H     0.873000000    -0.254000000    -3.108000000
C     0.710000000     0.142000000    -0.983000000
H     0.334000000     1.191000000    -1.064000000
C     0.939000000    -0.406000000     0.294000000
H     0.766000000     0.267000000     1.130000000
C     1.472000000    -1.715000000     0.458000000
H     1.579000000    -2.174000000     1.438000000
C     1.574000000    -2.509000000    -0.663000000
C     2.115000000    -3.871000000    -0.510000000
O     2.305000000    -4.279000000     0.646000000
O     2.401000000    -4.489000000    -1.528000000
