14
-86.77483
C     0.173000000    -1.896000000    -0.828000000
H     0.292000000    -2.539000000    -1.696000000
C     0.470000000    -0.556000000    -0.907000000
H     0.861000000    -0.111000000    -1.818000000
C     0.307000000     0.269000000     0.185000000
H     0.513000000     1.374000000     0.114000000
C    -0.337000000    -0.244000000     1.269000000
H    -0.562000000     0.359000000     2.146000000
C    -0.694000000    -1.556000000     1.392000000
H    -1.285000000    -1.938000000     2.220000000
C    -0.403000000    -2.429000000     0.328000000
C    -0.751000000    -3.918000000     0.465000000
O    -0.988000000    -4.412000000     1.548000000
O    -0.887000000    -4.578000000    -0.525000000
