14
-80.73864
C     1.447000000    -1.916000000    -0.462000000
H     1.991000000    -2.488000000    -1.210000000
C     1.103000000    -0.603000000    -0.730000000
H     1.487000000    -0.179000000    -1.654000000
C     0.298000000     0.166000000     0.182000000
H     0.227000000     1.278000000     0.050000000
C    -0.175000000    -0.470000000     1.301000000
H    -0.730000000     0.115000000     2.030000000
C     0.070000000    -1.798000000     1.481000000
H    -0.352000000    -2.340000000     2.323000000
C     0.897000000    -2.582000000     0.640000000
C     1.284000000    -3.980000000     1.009000000
O     0.584000000    -4.500000000     1.902000000
O     1.855000000    -4.761000000     0.280000000
