14
-81.18307
C    -1.895000000     0.232000000    -1.208000000
H    -2.755000000     0.021000000    -1.838000000
C    -1.026000000    -0.809000000    -0.945000000
H    -1.329000000    -1.808000000    -1.248000000
C     0.130000000    -0.625000000    -0.215000000
H     0.725000000    -1.409000000     0.087000000
C     0.329000000     0.622000000     0.342000000
H     1.245000000     0.903000000     0.855000000
C    -0.638000000     1.650000000     0.182000000
H    -0.463000000     2.665000000     0.532000000
C    -1.666000000     1.525000000    -0.751000000
C    -2.566000000     2.658000000    -1.232000000
O    -2.690000000     3.666000000    -0.617000000
O    -3.216000000     2.579000000    -2.281000000
