14
-89.05123
C    -0.019000000    -1.983000000    -0.471000000
H     0.444000000    -2.441000000    -1.341000000
C    -0.133000000    -0.577000000    -0.431000000
H     0.125000000     0.079000000    -1.259000000
C    -0.632000000     0.027000000     0.700000000
H    -0.641000000     1.113000000     0.789000000
C    -0.835000000    -0.768000000     1.867000000
H    -0.992000000    -0.261000000     2.816000000
C    -0.789000000    -2.142000000     1.808000000
H    -0.987000000    -2.704000000     2.718000000
C    -0.408000000    -2.763000000     0.651000000
C    -0.256000000    -4.271000000     0.686000000
O    -0.794000000    -4.891000000     1.594000000
O     0.543000000    -4.794000000    -0.046000000
