14
-83.04399
C     0.208000000    -2.090000000    -1.108000000
H     0.365000000    -2.830000000    -1.888000000
C     0.313000000    -0.771000000    -1.444000000
H     0.564000000    -0.496000000    -2.465000000
C     0.084000000     0.182000000    -0.444000000
H     0.256000000     1.216000000    -0.578000000
C    -0.161000000    -0.294000000     0.839000000
H    -0.335000000     0.422000000     1.637000000
C    -0.453000000    -1.589000000     1.116000000
H    -0.862000000    -1.863000000     2.085000000
C    -0.174000000    -2.570000000     0.144000000
C    -0.280000000    -4.024000000     0.402000000
O    -0.914000000    -4.488000000     1.360000000
O    -0.014000000    -4.879000000    -0.471000000
