14
-75.66403
C     0.588000000    -1.601000000    -0.642000000
H     1.075000000    -2.096000000    -1.478000000
C     0.355000000    -0.201000000    -0.780000000
H     0.547000000     0.243000000    -1.753000000
C    -0.222000000     0.494000000     0.228000000
H    -0.479000000     1.544000000     0.010000000
C    -0.373000000    -0.116000000     1.436000000
H    -0.756000000     0.414000000     2.305000000
C    -0.068000000    -1.477000000     1.648000000
H    -0.314000000    -1.958000000     2.591000000
C     0.376000000    -2.214000000     0.589000000
C     0.582000000    -3.685000000     0.817000000
O     0.287000000    -4.247000000     1.840000000
O     1.054000000    -4.425000000     0.011000000
