14
-91.92175
C     0.074000000    -2.570000000    -0.541000000
H     0.169000000    -3.428000000    -1.202000000
C     0.195000000    -1.270000000    -0.990000000
H     0.548000000    -1.016000000    -1.986000000
C    -0.124000000    -0.215000000    -0.161000000
H    -0.002000000     0.825000000    -0.446000000
C    -0.486000000    -0.431000000     1.152000000
H    -0.695000000     0.434000000     1.775000000
C    -0.597000000    -1.706000000     1.689000000
H    -0.898000000    -1.934000000     2.709000000
C    -0.287000000    -2.809000000     0.825000000
C    -0.520000000    -4.220000000     1.370000000
O    -1.042000000    -4.433000000     2.471000000
O    -0.180000000    -5.123000000     0.644000000
