14
-89.60706
C     1.333000000    -2.271000000    -0.398000000
H     2.136000000    -2.743000000    -0.959000000
C     0.956000000    -0.967000000    -0.815000000
H     1.447000000    -0.568000000    -1.699000000
C    -0.046000000    -0.241000000    -0.185000000
H    -0.287000000     0.792000000    -0.391000000
C    -0.664000000    -0.868000000     0.940000000
H    -1.459000000    -0.371000000     1.490000000
C    -0.252000000    -2.161000000     1.406000000
H    -0.796000000    -2.539000000     2.268000000
C     0.709000000    -2.871000000     0.707000000
C     1.170000000    -4.162000000     1.279000000
O     0.367000000    -4.819000000     2.009000000
O     2.222000000    -4.607000000     0.936000000
