14
-84.96983
C    -1.786000000     0.203000000    -1.205000000
H    -2.663000000    -0.277000000    -1.632000000
C    -0.800000000    -0.594000000    -0.566000000
H    -0.839000000    -1.674000000    -0.678000000
C     0.199000000     0.074000000     0.119000000
H     1.053000000    -0.461000000     0.562000000
C     0.280000000     1.500000000     0.161000000
H     1.167000000     1.934000000     0.616000000
C    -0.772000000     2.242000000    -0.432000000
H    -0.843000000     3.321000000    -0.317000000
C    -1.799000000     1.550000000    -1.084000000
C    -3.051000000     2.235000000    -1.632000000
O    -3.327000000     3.391000000    -1.231000000
O    -3.559000000     1.828000000    -2.621000000
