14
-83.37090
C     1.403000000    -1.484000000    -0.833000000
H     2.190000000    -1.836000000    -1.496000000
C     0.999000000    -0.174000000    -0.927000000
H     1.341000000     0.547000000    -1.665000000
C    -0.081000000     0.283000000    -0.129000000
H    -0.494000000     1.245000000    -0.224000000
C    -0.463000000    -0.471000000     0.984000000
H    -1.161000000    -0.098000000     1.729000000
C     0.178000000    -1.672000000     1.208000000
H    -0.155000000    -2.311000000     2.022000000
C     0.997000000    -2.278000000     0.258000000
C     1.589000000    -3.633000000     0.462000000
O     1.342000000    -4.389000000     1.408000000
O     2.322000000    -4.055000000    -0.388000000
