14
-87.04804
C     0.091000000    -2.375000000    -0.738000000
H     0.192000000    -3.303000000    -1.295000000
C     0.384000000    -1.162000000    -1.312000000
H     0.602000000    -1.049000000    -2.371000000
C     0.277000000     0.023000000    -0.573000000
H     0.475000000     0.936000000    -0.975000000
C    -0.083000000    -0.014000000     0.748000000
H    -0.015000000     0.886000000     1.355000000
C    -0.260000000    -1.241000000     1.347000000
H    -0.540000000    -1.298000000     2.396000000
C    -0.169000000    -2.456000000     0.619000000
C    -0.288000000    -3.850000000     1.282000000
O    -0.647000000    -3.909000000     2.425000000
O    -0.047000000    -4.915000000     0.693000000
