14
-83.88394
C     0.540000000    -2.330000000    -0.325000000
H     0.686000000    -3.218000000    -0.935000000
C     0.799000000    -1.097000000    -0.785000000
H     1.156000000    -0.948000000    -1.801000000
C     0.399000000     0.065000000    -0.063000000
H     0.439000000     1.077000000    -0.378000000
C    -0.248000000    -0.104000000     1.144000000
H    -0.793000000     0.734000000     1.571000000
C    -0.378000000    -1.368000000     1.678000000
H    -0.747000000    -1.507000000     2.691000000
C     0.051000000    -2.515000000     0.980000000
C    -0.111000000    -3.897000000     1.544000000
O    -0.574000000    -4.179000000     2.669000000
O     0.131000000    -4.875000000     0.846000000
