14
-86.30766
C     1.189000000    -1.559000000    -0.102000000
H     1.883000000    -1.747000000    -0.917000000
C     0.397000000    -0.422000000    -0.159000000
H     0.611000000     0.370000000    -0.872000000
C    -0.696000000    -0.219000000     0.710000000
H    -1.222000000     0.712000000     0.677000000
C    -0.972000000    -1.256000000     1.663000000
H    -1.689000000    -1.164000000     2.474000000
C    -0.185000000    -2.355000000     1.735000000
H    -0.441000000    -3.254000000     2.291000000
C     0.946000000    -2.486000000     0.905000000
C     1.800000000    -3.741000000     1.084000000
O     1.805000000    -4.371000000     2.145000000
O     2.591000000    -3.977000000     0.222000000
