14
-86.71203
C     1.660000000    -2.926000000    -0.585000000
H     2.207000000    -3.645000000    -1.189000000
C     1.096000000    -1.796000000    -1.208000000
H     1.030000000    -1.680000000    -2.287000000
C     0.340000000    -0.889000000    -0.403000000
H    -0.056000000     0.040000000    -0.827000000
C     0.147000000    -1.069000000     0.903000000
H    -0.416000000    -0.341000000     1.482000000
C     0.685000000    -2.203000000     1.510000000
H     0.580000000    -2.374000000     2.578000000
C     1.344000000    -3.228000000     0.753000000
C     1.752000000    -4.506000000     1.367000000
O     1.617000000    -4.618000000     2.592000000
O     2.235000000    -5.355000000     0.677000000
