14
-92.82272
C     0.491000000    -2.259000000    -0.333000000
H     0.882000000    -3.037000000    -0.983000000
C     0.555000000    -0.942000000    -0.741000000
H     1.102000000    -0.738000000    -1.659000000
C    -0.078000000     0.066000000    -0.025000000
H     0.081000000     1.106000000    -0.287000000
C    -0.877000000    -0.237000000     1.086000000
H    -1.375000000     0.539000000     1.662000000
C    -1.002000000    -1.550000000     1.513000000
H    -1.732000000    -1.772000000     2.287000000
C    -0.296000000    -2.564000000     0.833000000
C    -0.376000000    -3.987000000     1.427000000
O    -1.014000000    -4.228000000     2.520000000
O     0.216000000    -4.880000000     0.753000000
