14
-86.93571
C     1.266000000    -2.554000000     1.012000000
H     2.022000000    -3.334000000     1.045000000
C     1.187000000    -1.496000000     0.027000000
H     2.005000000    -1.387000000    -0.680000000
C     0.163000000    -0.616000000     0.086000000
H     0.261000000     0.260000000    -0.574000000
C    -0.695000000    -0.624000000     1.159000000
H    -1.439000000     0.159000000     1.274000000
C    -0.515000000    -1.562000000     2.193000000
H    -1.118000000    -1.446000000     3.090000000
C     0.443000000    -2.579000000     2.102000000
C     0.630000000    -3.571000000     3.263000000
O    -0.196000000    -3.667000000     4.150000000
O     1.634000000    -4.307000000     3.299000000
