14
-83.82764
C     0.552000000    -2.313000000     0.844000000
H     1.077000000    -3.263000000     0.783000000
C     0.737000000    -1.433000000    -0.222000000
H     1.434000000    -1.664000000    -1.023000000
C     0.253000000    -0.145000000    -0.115000000
H     0.631000000     0.546000000    -0.790000000
C    -0.547000000     0.226000000     0.919000000
H    -0.988000000     1.220000000     0.923000000
C    -0.810000000    -0.708000000     1.964000000
H    -1.291000000    -0.412000000     2.893000000
C    -0.170000000    -1.955000000     1.910000000
C    -0.515000000    -3.024000000     2.952000000
O    -1.312000000    -2.832000000     3.899000000
O    -0.021000000    -4.093000000     2.781000000
