14
-79.21224
C     1.012000000    -2.770000000     0.767000000
H     1.711000000    -3.599000000     0.680000000
C     1.066000000    -1.743000000    -0.090000000
H     1.851000000    -1.909000000    -0.824000000
C     0.337000000    -0.651000000    -0.042000000
H     0.425000000     0.212000000    -0.675000000
C    -0.649000000    -0.648000000     0.943000000
H    -1.186000000     0.288000000     1.072000000
C    -0.800000000    -1.662000000     1.843000000
H    -1.563000000    -1.559000000     2.610000000
C     0.057000000    -2.728000000     1.790000000
C    -0.069000000    -3.959000000     2.720000000
O    -0.770000000    -3.937000000     3.704000000
O     0.713000000    -4.840000000     2.487000000
