14
-79.11309
C     1.603000000    -1.229000000     0.040000000
H     2.499000000    -1.625000000    -0.431000000
C     0.947000000    -0.113000000    -0.511000000
H     1.266000000     0.558000000    -1.304000000
C    -0.258000000     0.359000000    -0.005000000
H    -0.705000000     1.309000000    -0.326000000
C    -0.889000000    -0.369000000     1.033000000
H    -1.858000000    -0.128000000     1.464000000
C    -0.188000000    -1.456000000     1.616000000
H    -0.535000000    -1.809000000     2.584000000
C     1.098000000    -1.891000000     1.201000000
C     1.810000000    -3.086000000     1.872000000
O     1.254000000    -3.683000000     2.726000000
O     2.762000000    -3.624000000     1.316000000
