14
-84.36483
C     0.993000000    -2.229000000     1.167000000
H     1.752000000    -2.998000000     1.289000000
C     1.039000000    -1.442000000     0.049000000
H     1.765000000    -1.631000000    -0.738000000
C     0.161000000    -0.410000000    -0.078000000
H     0.271000000     0.287000000    -0.925000000
C    -0.818000000    -0.275000000     0.888000000
H    -1.564000000     0.506000000     0.768000000
C    -0.905000000    -1.075000000     2.042000000
H    -1.765000000    -0.987000000     2.701000000
C     0.079000000    -2.079000000     2.234000000
C     0.029000000    -3.038000000     3.402000000
O    -0.942000000    -3.085000000     4.150000000
O     0.825000000    -3.928000000     3.519000000
