14
-88.80830
C    -1.085000000    -2.069000000    -0.197000000
H    -1.634000000    -2.923000000    -0.585000000
C    -0.426000000    -1.212000000    -1.159000000
H    -0.347000000    -1.447000000    -2.217000000
C     0.293000000    -0.189000000    -0.651000000
H     0.845000000     0.474000000    -1.397000000
C     0.409000000     0.034000000     0.743000000
H     1.022000000     0.861000000     1.093000000
C    -0.344000000    -0.706000000     1.639000000
H    -0.382000000    -0.448000000     2.694000000
C    -1.051000000    -1.830000000     1.181000000
C    -1.795000000    -2.738000000     2.138000000
O    -1.986000000    -2.378000000     3.315000000
O    -2.142000000    -3.839000000     1.806000000
