14
-84.22599
C    -0.699000000    -2.616000000     0.241000000
H    -0.589000000    -3.646000000    -0.088000000
C     0.054000000    -1.696000000    -0.460000000
H     0.592000000    -2.085000000    -1.321000000
C    -0.028000000    -0.400000000    -0.166000000
H     0.566000000     0.382000000    -0.711000000
C    -0.875000000     0.084000000     0.826000000
H    -0.875000000     1.148000000     1.050000000
C    -1.581000000    -0.895000000     1.586000000
H    -2.205000000    -0.578000000     2.418000000
C    -1.522000000    -2.271000000     1.290000000
C    -2.419000000    -3.238000000     2.041000000
O    -3.436000000    -2.905000000     2.606000000
O    -2.141000000    -4.435000000     2.095000000
