14
-85.60192
C     0.532000000    -1.983000000     0.398000000
H     0.939000000    -2.898000000    -0.027000000
C     0.656000000    -0.829000000    -0.390000000
H     1.079000000    -0.933000000    -1.386000000
C     0.103000000     0.366000000    -0.067000000
H     0.373000000     1.266000000    -0.667000000
C    -0.487000000     0.468000000     1.233000000
H    -0.946000000     1.387000000     1.590000000
C    -0.546000000    -0.697000000     2.043000000
H    -0.963000000    -0.562000000     3.038000000
C    -0.053000000    -1.921000000     1.672000000
C    -0.151000000    -3.127000000     2.577000000
O    -0.263000000    -2.947000000     3.744000000
O    -0.326000000    -4.193000000     2.023000000
