14
-85.31595
C    -0.390000000    -2.996000000     1.188000000
H    -0.147000000    -4.029000000     0.952000000
C    -0.079000000    -1.979000000     0.294000000
H     0.319000000    -2.163000000    -0.701000000
C    -0.502000000    -0.687000000     0.593000000
H    -0.418000000     0.026000000    -0.236000000
C    -0.964000000    -0.384000000     1.829000000
H    -1.049000000     0.654000000     2.141000000
C    -1.242000000    -1.396000000     2.695000000
H    -1.619000000    -1.145000000     3.683000000
C    -0.994000000    -2.743000000     2.388000000
C    -1.216000000    -3.858000000     3.396000000
O    -1.397000000    -3.510000000     4.532000000
O    -1.328000000    -5.003000000     3.060000000
