14
-81.11682
C    -0.529000000    -3.055000000    -0.053000000
H    -0.640000000    -4.015000000    -0.551000000
C    -0.063000000    -2.031000000    -0.813000000
H     0.100000000    -2.212000000    -1.872000000
C     0.038000000    -0.702000000    -0.244000000
H     0.248000000     0.132000000    -0.964000000
C    -0.248000000    -0.566000000     1.118000000
H    -0.228000000     0.437000000     1.537000000
C    -0.555000000    -1.710000000     1.902000000
H    -0.682000000    -1.562000000     2.972000000
C    -0.690000000    -2.954000000     1.348000000
C    -1.119000000    -4.022000000     2.223000000
O    -1.236000000    -3.825000000     3.404000000
O    -1.583000000    -5.032000000     1.749000000
