14
-83.57620
C    -1.349000000    -1.938000000     0.185000000
H    -1.816000000    -2.892000000    -0.045000000
C    -0.677000000    -1.290000000    -0.826000000
H    -0.667000000    -1.646000000    -1.853000000
C    -0.011000000    -0.115000000    -0.539000000
H     0.375000000     0.471000000    -1.338000000
C     0.049000000     0.420000000     0.693000000
H     0.550000000     1.350000000     0.950000000
C    -0.749000000    -0.233000000     1.702000000
H    -0.687000000     0.166000000     2.711000000
C    -1.445000000    -1.411000000     1.475000000
C    -2.255000000    -2.092000000     2.570000000
O    -2.128000000    -1.810000000     3.742000000
O    -2.919000000    -3.120000000     2.363000000
