14
-88.80858
C     0.026000000    -2.285000000     0.515000000
H     0.151000000    -3.362000000     0.427000000
C     0.680000000    -1.514000000    -0.467000000
H     1.202000000    -1.961000000    -1.309000000
C     0.572000000    -0.130000000    -0.477000000
H     1.036000000     0.495000000    -1.298000000
C    -0.131000000     0.485000000     0.536000000
H    -0.262000000     1.564000000     0.526000000
C    -0.657000000    -0.303000000     1.621000000
H    -1.217000000     0.223000000     2.390000000
C    -0.619000000    -1.681000000     1.625000000
C    -1.276000000    -2.447000000     2.733000000
O    -2.152000000    -1.936000000     3.464000000
O    -1.081000000    -3.635000000     2.830000000
