14
-79.09173
C    -0.486000000    -1.888000000     0.602000000
H    -0.178000000    -2.891000000     0.318000000
C    -0.100000000    -0.681000000    -0.019000000
H     0.594000000    -0.643000000    -0.855000000
C    -0.538000000     0.559000000     0.447000000
H    -0.244000000     1.391000000    -0.129000000
C    -1.477000000     0.651000000     1.462000000
H    -1.889000000     1.573000000     1.864000000
C    -1.820000000    -0.578000000     2.097000000
H    -2.587000000    -0.617000000     2.867000000
C    -1.326000000    -1.817000000     1.720000000
C    -1.780000000    -3.146000000     2.391000000
O    -2.371000000    -3.119000000     3.477000000
O    -1.761000000    -4.169000000     1.849000000
