14
-86.60096
C    -0.489000000    -1.927000000     0.022000000
H    -0.582000000    -3.005000000    -0.088000000
C     0.201000000    -1.135000000    -0.924000000
H     0.643000000    -1.519000000    -1.839000000
C     0.361000000     0.248000000    -0.647000000
H     0.909000000     0.828000000    -1.377000000
C    -0.251000000     0.824000000     0.458000000
H    -0.079000000     1.884000000     0.627000000
C    -0.985000000     0.022000000     1.310000000
H    -1.513000000     0.433000000     2.167000000
C    -1.114000000    -1.384000000     1.149000000
C    -1.757000000    -2.177000000     2.213000000
O    -2.476000000    -1.731000000     3.038000000
O    -1.551000000    -3.402000000     2.226000000
