14
-86.83889
C    -0.186000000    -1.760000000     0.547000000
H     0.458000000    -2.627000000     0.426000000
C     0.243000000    -0.555000000     0.033000000
H     1.172000000    -0.402000000    -0.510000000
C    -0.509000000     0.594000000     0.176000000
H    -0.212000000     1.446000000    -0.373000000
C    -1.667000000     0.589000000     0.959000000
H    -2.318000000     1.448000000     1.097000000
C    -2.021000000    -0.650000000     1.480000000
H    -3.006000000    -0.680000000     1.940000000
C    -1.287000000    -1.821000000     1.360000000
C    -1.628000000    -3.156000000     2.035000000
O    -2.617000000    -3.205000000     2.728000000
O    -0.985000000    -4.155000000     1.813000000
