14
-86.12494
C     0.213000000    -1.650000000     0.579000000
H     0.750000000    -2.573000000     0.376000000
C     0.661000000    -0.446000000    -0.060000000
H     1.544000000    -0.469000000    -0.693000000
C     0.030000000     0.780000000     0.126000000
H     0.389000000     1.677000000    -0.331000000
C    -1.174000000     0.804000000     0.864000000
H    -1.746000000     1.728000000     0.887000000
C    -1.569000000    -0.323000000     1.542000000
H    -2.466000000    -0.334000000     2.157000000
C    -0.950000000    -1.588000000     1.412000000
C    -1.564000000    -2.832000000     2.091000000
O    -2.648000000    -2.809000000     2.630000000
O    -0.980000000    -3.875000000     2.076000000
