14
-72.35353
C    -0.449000000    -2.014000000     1.357000000
H    -0.395000000    -3.040000000     1.711000000
C     0.206000000    -1.690000000     0.189000000
H     0.816000000    -2.398000000    -0.367000000
C     0.152000000    -0.380000000    -0.292000000
H     0.871000000    -0.058000000    -1.079000000
C    -0.547000000     0.583000000     0.450000000
H    -0.540000000     1.627000000     0.148000000
C    -1.311000000     0.245000000     1.560000000
H    -1.857000000     1.004000000     2.114000000
C    -1.292000000    -1.096000000     2.001000000
C    -1.887000000    -1.499000000     3.320000000
O    -2.285000000    -0.745000000     4.148000000
O    -1.969000000    -2.621000000     3.594000000
