14
-86.69575
C    -0.160000000    -1.921000000     1.966000000
H     0.104000000    -2.974000000     2.031000000
C     0.190000000    -1.102000000     0.919000000
H     1.001000000    -1.353000000     0.240000000
C    -0.464000000     0.159000000     0.769000000
H    -0.276000000     0.791000000    -0.137000000
C    -1.478000000     0.604000000     1.622000000
H    -2.051000000     1.512000000     1.453000000
C    -1.852000000    -0.302000000     2.609000000
H    -2.820000000    -0.107000000     3.063000000
C    -1.224000000    -1.534000000     2.838000000
C    -1.805000000    -2.569000000     3.830000000
O    -2.822000000    -2.272000000     4.521000000
O    -1.480000000    -3.765000000     3.749000000
