14
-90.96795
C    -1.219000000    -2.722000000     1.175000000
H    -0.994000000    -3.779000000     1.054000000
C    -0.550000000    -1.863000000     0.345000000
H     0.031000000    -2.150000000    -0.527000000
C    -0.814000000    -0.455000000     0.409000000
H    -0.324000000     0.168000000    -0.316000000
C    -1.634000000     0.052000000     1.421000000
H    -1.807000000     1.120000000     1.525000000
C    -2.234000000    -0.846000000     2.294000000
H    -2.772000000    -0.430000000     3.142000000
C    -2.158000000    -2.246000000     2.141000000
C    -2.759000000    -3.213000000     3.135000000
O    -3.564000000    -2.757000000     3.936000000
O    -2.470000000    -4.401000000     3.114000000
