14
-77.84484
C    -0.917000000    -1.582000000     2.433000000
H    -0.703000000    -2.469000000     3.024000000
C    -0.135000000    -1.024000000     1.443000000
H     0.835000000    -1.422000000     1.157000000
C    -0.664000000     0.035000000     0.704000000
H    -0.106000000     0.365000000    -0.123000000
C    -1.800000000     0.706000000     1.171000000
H    -2.043000000     1.602000000     0.606000000
C    -2.540000000     0.230000000     2.252000000
H    -3.533000000     0.629000000     2.445000000
C    -2.077000000    -0.866000000     2.907000000
C    -3.026000000    -1.464000000     3.920000000
O    -4.115000000    -1.103000000     4.244000000
O    -2.653000000    -2.522000000     4.386000000
