14
-90.86832
C    -0.622000000    -2.251000000     0.742000000
H    -0.561000000    -3.298000000     0.457000000
C    -0.054000000    -1.297000000    -0.066000000
H     0.546000000    -1.660000000    -0.897000000
C    -0.167000000     0.046000000     0.322000000
H     0.290000000     0.774000000    -0.215000000
C    -0.988000000     0.419000000     1.369000000
H    -1.021000000     1.486000000     1.573000000
C    -1.608000000    -0.555000000     2.168000000
H    -2.353000000    -0.287000000     2.912000000
C    -1.315000000    -1.893000000     1.889000000
C    -1.919000000    -3.012000000     2.735000000
O    -2.602000000    -2.629000000     3.676000000
O    -1.704000000    -4.176000000     2.483000000
