14
-79.42352
C    -0.376000000    -1.822000000     1.237000000
H    -0.260000000    -2.894000000     1.101000000
C     0.090000000    -0.837000000     0.347000000
H     0.542000000    -1.123000000    -0.599000000
C    -0.163000000     0.486000000     0.561000000
H     0.165000000     1.190000000    -0.204000000
C    -0.910000000     0.864000000     1.682000000
H    -1.052000000     1.931000000     1.832000000
C    -1.388000000    -0.112000000     2.577000000
H    -1.991000000     0.136000000     3.446000000
C    -1.156000000    -1.484000000     2.338000000
C    -1.764000000    -2.510000000     3.283000000
O    -2.231000000    -2.279000000     4.344000000
O    -1.721000000    -3.640000000     2.950000000
