14
-87.99177
C    -0.135000000    -1.592000000     0.991000000
H     0.174000000    -2.596000000     0.714000000
C     0.170000000    -0.464000000     0.213000000
H     0.878000000    -0.572000000    -0.605000000
C    -0.450000000     0.785000000     0.520000000
H    -0.208000000     1.676000000    -0.107000000
C    -1.251000000     0.866000000     1.632000000
H    -1.729000000     1.824000000     1.814000000
C    -1.606000000    -0.230000000     2.391000000
H    -2.338000000    -0.150000000     3.192000000
C    -1.010000000    -1.526000000     2.058000000
C    -1.313000000    -2.764000000     2.824000000
O    -2.144000000    -2.668000000     3.713000000
O    -0.891000000    -3.852000000     2.494000000
