14
-76.59094
C    -0.605000000    -2.415000000     0.682000000
H    -0.354000000    -3.469000000     0.767000000
C     0.209000000    -1.531000000    -0.064000000
H     1.096000000    -1.898000000    -0.575000000
C    -0.139000000    -0.211000000    -0.086000000
H     0.378000000     0.513000000    -0.738000000
C    -1.150000000     0.268000000     0.697000000
H    -1.344000000     1.336000000     0.634000000
C    -1.994000000    -0.568000000     1.463000000
H    -2.630000000    -0.096000000     2.207000000
C    -1.716000000    -1.948000000     1.410000000
C    -2.272000000    -2.883000000     2.434000000
O    -3.381000000    -2.730000000     2.862000000
O    -1.789000000    -3.969000000     2.656000000
