14
-89.25721
C    -1.039000000    -2.524000000     0.597000000
H    -1.150000000    -3.553000000     0.264000000
C    -0.310000000    -1.604000000    -0.149000000
H     0.186000000    -1.907000000    -1.068000000
C    -0.240000000    -0.266000000     0.215000000
H     0.221000000     0.501000000    -0.365000000
C    -0.882000000     0.072000000     1.394000000
H    -0.644000000     1.072000000     1.749000000
C    -1.495000000    -0.833000000     2.263000000
H    -1.929000000    -0.533000000     3.214000000
C    -1.637000000    -2.173000000     1.846000000
C    -2.414000000    -3.158000000     2.684000000
O    -2.705000000    -2.851000000     3.831000000
O    -2.730000000    -4.274000000     2.297000000
