14
-83.03542
C    -0.702000000    -2.537000000     0.151000000
H    -0.511000000    -3.526000000    -0.257000000
C    -0.026000000    -1.450000000    -0.419000000
H     0.628000000    -1.734000000    -1.239000000
C    -0.296000000    -0.134000000    -0.083000000
H     0.187000000     0.633000000    -0.656000000
C    -1.194000000     0.181000000     0.915000000
H    -1.325000000     1.211000000     1.236000000
C    -1.808000000    -0.882000000     1.546000000
H    -2.566000000    -0.481000000     2.214000000
C    -1.608000000    -2.214000000     1.182000000
C    -2.490000000    -3.345000000     1.660000000
O    -3.436000000    -3.137000000     2.395000000
O    -2.357000000    -4.466000000     1.226000000
