14
-83.97127
C    -0.618000000    -2.078000000     0.283000000
H    -0.739000000    -3.141000000     0.093000000
C     0.344000000    -1.323000000    -0.285000000
H     1.048000000    -1.829000000    -0.940000000
C     0.271000000     0.032000000    -0.148000000
H     1.077000000     0.558000000    -0.603000000
C    -0.602000000     0.648000000     0.764000000
H    -0.604000000     1.708000000     1.004000000
C    -1.505000000    -0.115000000     1.504000000
H    -2.228000000     0.309000000     2.195000000
C    -1.531000000    -1.486000000     1.196000000
C    -2.499000000    -2.444000000     1.804000000
O    -3.601000000    -1.970000000     2.102000000
O    -2.354000000    -3.645000000     1.873000000
