14
-87.07158
C    -0.026000000    -1.897000000     0.222000000
H     0.234000000    -2.808000000    -0.310000000
C     0.439000000    -0.748000000    -0.388000000
H     1.151000000    -0.797000000    -1.207000000
C     0.083000000     0.457000000     0.173000000
H     0.495000000     1.375000000    -0.212000000
C    -0.772000000     0.553000000     1.251000000
H    -0.959000000     1.506000000     1.738000000
C    -1.228000000    -0.652000000     1.844000000
H    -1.949000000    -0.593000000     2.655000000
C    -0.850000000    -1.900000000     1.353000000
C    -1.381000000    -3.203000000     1.908000000
O    -1.963000000    -3.162000000     2.967000000
O    -1.315000000    -4.208000000     1.283000000
