14
-82.80326
C    -2.125000000     0.710000000    -0.571000000
H    -2.975000000     0.397000000    -1.172000000
C    -1.011000000    -0.173000000    -0.533000000
H    -1.066000000    -1.110000000    -1.082000000
C     0.179000000     0.307000000     0.009000000
H     1.096000000    -0.282000000     0.060000000
C     0.238000000     1.567000000     0.642000000
H     1.136000000     1.972000000     1.101000000
C    -0.897000000     2.343000000     0.552000000
H    -0.824000000     3.313000000     1.038000000
C    -2.064000000     1.920000000    -0.004000000
C    -3.137000000     2.938000000    -0.265000000
O    -3.067000000     4.110000000    -0.004000000
O    -4.141000000     2.574000000    -0.890000000
