14
-83.33952
C    -0.300000000    -1.774000000     0.536000000
H    -0.111000000    -2.776000000     0.159000000
C     0.337000000    -0.651000000    -0.037000000
H     1.086000000    -0.808000000    -0.809000000
C    -0.088000000     0.644000000     0.315000000
H     0.428000000     1.515000000    -0.134000000
C    -0.991000000     0.834000000     1.276000000
H    -1.182000000     1.837000000     1.648000000
C    -1.581000000    -0.296000000     1.851000000
H    -2.369000000    -0.223000000     2.597000000
C    -1.328000000    -1.556000000     1.442000000
C    -2.184000000    -2.733000000     1.853000000
O    -3.338000000    -2.591000000     2.232000000
O    -1.824000000    -3.859000000     1.601000000
