14
-88.33421
C    -0.379000000    -2.200000000     0.379000000
H    -0.146000000    -3.148000000    -0.101000000
C     0.159000000    -0.996000000    -0.025000000
H     0.816000000    -1.069000000    -0.888000000
C    -0.162000000     0.236000000     0.615000000
H     0.302000000     1.171000000     0.285000000
C    -0.926000000     0.131000000     1.754000000
H    -1.160000000     1.029000000     2.320000000
C    -1.333000000    -1.113000000     2.226000000
H    -2.001000000    -1.160000000     3.083000000
C    -1.056000000    -2.293000000     1.621000000
C    -1.628000000    -3.616000000     2.231000000
O    -2.134000000    -3.613000000     3.337000000
O    -1.655000000    -4.673000000     1.571000000
