14
-87.46173
C    -1.979000000     0.659000000    -0.783000000
H    -2.980000000     0.362000000    -1.085000000
C    -1.009000000    -0.280000000    -0.595000000
H    -1.293000000    -1.324000000    -0.702000000
C     0.285000000     0.066000000    -0.253000000
H     0.934000000    -0.793000000    -0.063000000
C     0.623000000     1.396000000     0.011000000
H     1.590000000     1.690000000     0.411000000
C    -0.392000000     2.317000000    -0.105000000
H    -0.118000000     3.340000000     0.140000000
C    -1.691000000     1.983000000    -0.514000000
C    -2.723000000     3.088000000    -0.876000000
O    -2.429000000     4.236000000    -0.648000000
O    -3.836000000     2.722000000    -1.120000000
