14
-87.59515
C    -0.218000000    -2.392000000     0.130000000
H    -0.365000000    -3.455000000    -0.047000000
C     0.380000000    -1.585000000    -0.804000000
H     0.674000000    -2.049000000    -1.742000000
C     0.646000000    -0.261000000    -0.579000000
H     1.245000000     0.319000000    -1.299000000
C     0.309000000     0.346000000     0.621000000
H     0.498000000     1.399000000     0.813000000
C    -0.337000000    -0.494000000     1.547000000
H    -0.717000000    -0.060000000     2.468000000
C    -0.676000000    -1.827000000     1.269000000
C    -1.551000000    -2.559000000     2.236000000
O    -2.029000000    -1.893000000     3.085000000
O    -1.707000000    -3.782000000     2.116000000
