14
-80.76865
C    -0.505000000    -2.684000000     0.546000000
H    -0.412000000    -3.693000000     0.153000000
C     0.021000000    -1.505000000    -0.040000000
H     0.456000000    -1.552000000    -1.035000000
C    -0.129000000    -0.216000000     0.457000000
H     0.248000000     0.593000000    -0.188000000
C    -0.831000000    -0.146000000     1.683000000
H    -0.774000000     0.795000000     2.223000000
C    -1.390000000    -1.290000000     2.338000000
H    -1.771000000    -1.156000000     3.347000000
C    -1.225000000    -2.567000000     1.738000000
C    -1.604000000    -3.797000000     2.527000000
O    -2.057000000    -3.803000000     3.639000000
O    -1.425000000    -4.933000000     2.048000000
