14
-85.37174
C    -1.218000000    -3.037000000    -0.235000000
H    -1.866000000    -3.585000000    -0.914000000
C    -0.507000000    -1.998000000    -0.822000000
H    -0.492000000    -1.906000000    -1.905000000
C     0.266000000    -1.174000000    -0.059000000
H     0.812000000    -0.359000000    -0.480000000
C     0.400000000    -1.351000000     1.284000000
H     1.011000000    -0.697000000     1.901000000
C    -0.296000000    -2.394000000     1.908000000
H    -0.269000000    -2.661000000     2.962000000
C    -1.158000000    -3.204000000     1.160000000
C    -2.242000000    -4.138000000     1.784000000
O    -2.247000000    -4.330000000     2.985000000
O    -2.829000000    -4.915000000     1.053000000
