14
-86.66035
C    -1.414000000    -1.942000000    -0.308000000
H    -1.740000000    -2.845000000    -0.818000000
C    -0.652000000    -1.088000000    -1.159000000
H    -0.553000000    -1.268000000    -2.226000000
C    -0.039000000    -0.001000000    -0.569000000
H     0.522000000     0.755000000    -1.109000000
C    -0.122000000     0.182000000     0.842000000
H     0.398000000     1.032000000     1.275000000
C    -0.948000000    -0.669000000     1.625000000
H    -1.056000000    -0.410000000     2.675000000
C    -1.650000000    -1.754000000     1.097000000
C    -2.369000000    -2.745000000     1.938000000
O    -2.564000000    -2.540000000     3.174000000
O    -2.875000000    -3.697000000     1.412000000
