14
-83.35925
C    -1.476000000    -3.338000000     0.209000000
H    -1.813000000    -4.168000000    -0.407000000
C    -0.777000000    -2.205000000    -0.369000000
H    -0.560000000    -2.145000000    -1.433000000
C    -0.194000000    -1.277000000     0.460000000
H     0.145000000    -0.356000000    -0.009000000
C    -0.368000000    -1.264000000     1.831000000
H    -0.012000000    -0.528000000     2.547000000
C    -1.041000000    -2.356000000     2.364000000
H    -1.114000000    -2.374000000     3.448000000
C    -1.577000000    -3.411000000     1.591000000
C    -2.495000000    -4.547000000     2.182000000
O    -2.719000000    -4.611000000     3.375000000
O    -2.983000000    -5.422000000     1.489000000
