14
-83.76938
C     0.488000000    -2.619000000     0.820000000
H     0.898000000    -3.582000000     0.526000000
C     0.491000000    -1.495000000    -0.008000000
H     0.733000000    -1.629000000    -1.060000000
C     0.129000000    -0.211000000     0.462000000
H     0.209000000     0.684000000    -0.200000000
C    -0.424000000    -0.075000000     1.726000000
H    -0.889000000     0.855000000     2.044000000
C    -0.482000000    -1.231000000     2.548000000
H    -0.832000000    -1.111000000     3.570000000
C     0.026000000    -2.476000000     2.127000000
C    -0.087000000    -3.616000000     3.039000000
O    -0.863000000    -3.622000000     3.967000000
O     0.374000000    -4.702000000     2.735000000
