14
-86.47642
C    -0.573000000    -3.308000000    -0.033000000
H    -0.911000000    -4.096000000    -0.701000000
C    -0.124000000    -2.141000000    -0.588000000
H    -0.036000000    -2.047000000    -1.668000000
C     0.102000000    -1.000000000     0.219000000
H     0.328000000    -0.079000000    -0.255000000
C     0.080000000    -1.123000000     1.584000000
H     0.452000000    -0.317000000     2.212000000
C    -0.179000000    -2.311000000     2.166000000
H     0.003000000    -2.384000000     3.235000000
C    -0.632000000    -3.378000000     1.382000000
C    -1.118000000    -4.656000000     2.030000000
O    -1.291000000    -4.702000000     3.272000000
O    -1.502000000    -5.597000000     1.372000000
