14
-82.87100
C    -0.153000000    -3.100000000    -0.191000000
H     0.002000000    -4.078000000    -0.638000000
C    -0.320000000    -1.978000000    -1.000000000
H    -0.259000000    -2.050000000    -2.083000000
C    -0.424000000    -0.688000000    -0.475000000
H    -0.540000000     0.152000000    -1.128000000
C    -0.214000000    -0.544000000     0.881000000
H    -0.217000000     0.453000000     1.315000000
C     0.000000000    -1.676000000     1.710000000
H     0.119000000    -1.539000000     2.782000000
C     0.037000000    -2.979000000     1.197000000
C     0.305000000    -4.182000000     2.060000000
O     0.363000000    -4.098000000     3.235000000
O     0.361000000    -5.294000000     1.596000000
