14
-85.06184
C    -0.478000000    -3.089000000    -0.406000000
H    -0.831000000    -3.974000000    -0.929000000
C    -0.354000000    -1.854000000    -1.033000000
H    -0.442000000    -1.756000000    -2.112000000
C     0.100000000    -0.756000000    -0.259000000
H     0.271000000     0.192000000    -0.682000000
C     0.408000000    -0.875000000     1.062000000
H     0.809000000     0.007000000     1.555000000
C     0.051000000    -1.995000000     1.729000000
H     0.059000000    -2.107000000     2.810000000
C    -0.433000000    -3.162000000     1.023000000
C    -0.860000000    -4.394000000     1.846000000
O    -0.628000000    -4.445000000     3.005000000
O    -1.560000000    -5.196000000     1.243000000
