14
-85.90238
C     0.017000000    -2.667000000     0.480000000
H     0.185000000    -3.625000000    -0.004000000
C     0.087000000    -1.567000000    -0.343000000
H     0.018000000    -1.737000000    -1.414000000
C    -0.036000000    -0.301000000     0.254000000
H     0.002000000     0.503000000    -0.487000000
C    -0.143000000    -0.171000000     1.695000000
H    -0.232000000     0.839000000     2.085000000
C    -0.226000000    -1.330000000     2.468000000
H    -0.394000000    -1.227000000     3.538000000
C     0.008000000    -2.619000000     1.890000000
C     0.076000000    -3.859000000     2.779000000
O     0.035000000    -3.637000000     3.954000000
O     0.004000000    -5.008000000     2.318000000
