14
-86.58042
C    -0.830000000    -1.966000000     0.010000000
H    -0.978000000    -2.837000000    -0.624000000
C    -0.191000000    -0.795000000    -0.517000000
H    -0.039000000    -0.730000000    -1.591000000
C     0.142000000     0.253000000     0.307000000
H     0.583000000     1.207000000    -0.155000000
C    -0.266000000     0.194000000     1.627000000
H    -0.073000000     1.054000000     2.264000000
C    -0.887000000    -0.914000000     2.192000000
H    -1.072000000    -0.948000000     3.263000000
C    -1.168000000    -2.030000000     1.373000000
C    -1.740000000    -3.336000000     1.936000000
O    -1.516000000    -3.569000000     3.074000000
O    -2.378000000    -4.091000000     1.250000000
