14
-87.03593
C    -1.655000000    -2.099000000    -0.329000000
H    -2.158000000    -2.816000000    -0.973000000
C    -0.725000000    -1.196000000    -0.826000000
H    -0.410000000    -1.239000000    -1.865000000
C    -0.188000000    -0.228000000    -0.070000000
H     0.515000000     0.496000000    -0.533000000
C    -0.475000000    -0.135000000     1.350000000
H     0.076000000     0.539000000     2.001000000
C    -1.317000000    -1.157000000     1.860000000
H    -1.558000000    -1.166000000     2.920000000
C    -1.907000000    -2.160000000     1.050000000
C    -2.930000000    -3.201000000     1.516000000
O    -3.074000000    -3.398000000     2.721000000
O    -3.392000000    -3.975000000     0.710000000
