14
-83.58124
C    -0.752000000    -2.533000000    -0.358000000
H    -0.991000000    -3.499000000    -0.797000000
C    -0.164000000    -1.536000000    -1.125000000
H     0.057000000    -1.674000000    -2.180000000
C     0.066000000    -0.257000000    -0.571000000
H     0.479000000     0.504000000    -1.215000000
C    -0.193000000    -0.028000000     0.781000000
H     0.034000000     0.936000000     1.227000000
C    -0.813000000    -1.007000000     1.575000000
H    -1.019000000    -0.825000000     2.627000000
C    -1.137000000    -2.246000000     0.933000000
C    -1.736000000    -3.348000000     1.749000000
O    -1.892000000    -3.216000000     2.916000000
O    -2.195000000    -4.410000000     1.296000000
