14
-84.91426
C    -2.193000000    -1.350000000    -0.340000000
H    -3.167000000    -1.294000000    -0.818000000
C    -0.985000000    -1.027000000    -0.949000000
H    -0.942000000    -0.668000000    -1.975000000
C     0.152000000    -1.034000000    -0.193000000
H     1.095000000    -0.604000000    -0.552000000
C     0.187000000    -1.642000000     1.059000000
H     1.094000000    -1.656000000     1.659000000
C    -1.020000000    -2.184000000     1.626000000
H    -1.002000000    -2.467000000     2.676000000
C    -2.244000000    -1.901000000     0.979000000
C    -3.540000000    -2.324000000     1.622000000
O    -3.575000000    -2.567000000     2.852000000
O    -4.575000000    -2.248000000     1.034000000
