14
-84.00369
C    -2.543000000    -1.714000000    -0.312000000
H    -3.085000000    -2.377000000    -0.982000000
C    -1.287000000    -1.284000000    -0.629000000
H    -0.795000000    -1.367000000    -1.595000000
C    -0.554000000    -0.544000000     0.375000000
H     0.485000000    -0.334000000     0.197000000
C    -1.052000000    -0.395000000     1.671000000
H    -0.393000000     0.113000000     2.370000000
C    -2.291000000    -0.900000000     1.890000000
H    -2.708000000    -0.771000000     2.885000000
C    -3.055000000    -1.565000000     0.973000000
C    -4.386000000    -2.099000000     1.318000000
O    -4.841000000    -2.141000000     2.484000000
O    -5.080000000    -2.657000000     0.463000000
