14
-76.16829
C    -2.054000000    -0.939000000    -0.260000000
H    -2.630000000    -1.301000000    -1.108000000
C    -0.831000000    -0.296000000    -0.425000000
H    -0.360000000    -0.235000000    -1.403000000
C    -0.118000000    -0.020000000     0.697000000
H     0.906000000     0.429000000     0.574000000
C    -0.560000000    -0.213000000     1.946000000
H    -0.063000000     0.325000000     2.749000000
C    -1.731000000    -0.855000000     2.147000000
H    -2.018000000    -1.052000000     3.177000000
C    -2.494000000    -1.266000000     1.030000000
C    -3.696000000    -2.089000000     1.255000000
O    -3.768000000    -2.558000000     2.339000000
O    -4.355000000    -2.512000000     0.326000000
