14
-84.02245
C    -2.300000000    -1.367000000     0.310000000
H    -3.015000000    -1.891000000    -0.319000000
C    -1.156000000    -0.730000000    -0.214000000
H    -1.002000000    -0.608000000    -1.283000000
C    -0.234000000    -0.147000000     0.576000000
H     0.606000000     0.359000000     0.088000000
C    -0.490000000    -0.054000000     1.934000000
H     0.222000000     0.506000000     2.536000000
C    -1.590000000    -0.685000000     2.471000000
H    -1.742000000    -0.709000000     3.547000000
C    -2.471000000    -1.350000000     1.672000000
C    -3.723000000    -1.865000000     2.283000000
O    -3.862000000    -1.833000000     3.481000000
O    -4.564000000    -2.390000000     1.605000000
