14
-89.88700
C    -0.968000000    -1.274000000    -0.336000000
H    -1.701000000    -1.717000000    -1.004000000
C    -0.203000000    -0.224000000    -0.815000000
H    -0.319000000     0.146000000    -1.830000000
C     0.609000000     0.477000000     0.053000000
H     1.190000000     1.352000000    -0.353000000
C     0.697000000     0.187000000     1.431000000
H     1.264000000     0.812000000     2.116000000
C    -0.009000000    -0.889000000     1.875000000
H     0.023000000    -1.228000000     2.907000000
C    -0.885000000    -1.641000000     1.027000000
C    -1.722000000    -2.818000000     1.571000000
O    -1.749000000    -3.051000000     2.779000000
O    -2.280000000    -3.595000000     0.827000000
