14
-85.42649
C    -1.815000000    -0.283000000    -0.055000000
H    -2.601000000    -0.496000000    -0.776000000
C    -0.559000000     0.224000000    -0.379000000
H    -0.431000000     0.615000000    -1.385000000
C     0.431000000     0.414000000     0.577000000
H     1.428000000     0.790000000     0.372000000
C     0.151000000     0.166000000     1.892000000
H     0.981000000     0.293000000     2.582000000
C    -1.063000000    -0.458000000     2.251000000
H    -1.211000000    -0.683000000     3.304000000
C    -2.012000000    -0.685000000     1.261000000
C    -3.247000000    -1.413000000     1.598000000
O    -3.312000000    -2.160000000     2.552000000
O    -4.168000000    -1.430000000     0.802000000
