14
-85.20734
C    -1.481000000    -2.334000000    -0.412000000
H    -2.084000000    -2.973000000    -1.053000000
C    -0.677000000    -1.325000000    -0.951000000
H    -0.633000000    -1.221000000    -2.033000000
C    -0.069000000    -0.318000000    -0.187000000
H     0.445000000     0.503000000    -0.644000000
C    -0.318000000    -0.267000000     1.176000000
H    -0.045000000     0.651000000     1.691000000
C    -1.042000000    -1.298000000     1.752000000
H    -1.265000000    -1.272000000     2.816000000
C    -1.639000000    -2.301000000     0.974000000
C    -2.561000000    -3.242000000     1.698000000
O    -2.596000000    -3.235000000     2.896000000
O    -3.086000000    -4.164000000     1.103000000
