14
-78.12362
C    -1.446000000    -1.218000000    -0.779000000
H    -1.885000000    -1.697000000    -1.650000000
C    -0.533000000    -0.186000000    -0.727000000
H    -0.128000000     0.264000000    -1.630000000
C    -0.080000000     0.242000000     0.469000000
H     0.628000000     1.069000000     0.372000000
C    -0.464000000    -0.255000000     1.643000000
H     0.025000000     0.125000000     2.536000000
C    -1.335000000    -1.312000000     1.721000000
H    -1.544000000    -1.795000000     2.672000000
C    -1.860000000    -1.841000000     0.469000000
C    -2.781000000    -3.031000000     0.549000000
O    -3.114000000    -3.549000000     1.580000000
O    -3.310000000    -3.499000000    -0.470000000
