14
-89.94307
C    -0.514000000    -2.503000000    -0.397000000
H    -0.803000000    -3.208000000    -1.172000000
C    -0.126000000    -1.235000000    -0.816000000
H    -0.077000000    -0.962000000    -1.867000000
C     0.224000000    -0.309000000     0.140000000
H     0.538000000     0.671000000    -0.224000000
C     0.210000000    -0.644000000     1.516000000
H     0.388000000     0.174000000     2.210000000
C    -0.141000000    -1.918000000     1.882000000
H    -0.292000000    -2.058000000     2.949000000
C    -0.475000000    -2.900000000     0.973000000
C    -0.895000000    -4.312000000     1.408000000
O    -1.271000000    -4.516000000     2.564000000
O    -1.123000000    -5.086000000     0.503000000
