14
-91.04808
C    -1.786000000    -1.605000000    -0.784000000
H    -2.357000000    -2.146000000    -1.533000000
C    -0.684000000    -0.897000000    -1.279000000
H    -0.518000000    -0.730000000    -2.340000000
C     0.119000000    -0.213000000    -0.387000000
H     0.987000000     0.258000000    -0.774000000
C    -0.123000000    -0.210000000     0.998000000
H     0.487000000     0.411000000     1.649000000
C    -1.282000000    -0.867000000     1.485000000
H    -1.583000000    -0.815000000     2.528000000
C    -2.129000000    -1.526000000     0.580000000
C    -3.376000000    -2.377000000     0.987000000
O    -3.908000000    -2.308000000     2.131000000
O    -3.775000000    -3.230000000     0.197000000
