14
-84.17365
C    -1.015000000     1.678000000    -0.817000000
H    -1.647000000     1.814000000    -1.690000000
C    -0.581000000     0.424000000    -0.421000000
H    -0.980000000    -0.403000000    -1.001000000
C     0.257000000     0.259000000     0.618000000
H     0.394000000    -0.686000000     0.984000000
C     0.752000000     1.335000000     1.345000000
H     1.529000000     1.214000000     2.096000000
C     0.319000000     2.618000000     0.996000000
H     0.715000000     3.484000000     1.521000000
C    -0.390000000     2.793000000    -0.190000000
C    -0.709000000     4.247000000    -0.590000000
O    -0.050000000     5.207000000    -0.231000000
O    -1.728000000     4.469000000    -1.266000000
