14
-83.41424
C    -0.557000000    -0.779000000    -1.065000000
H    -0.691000000    -0.813000000    -2.143000000
C     0.269000000     0.275000000    -0.635000000
H     0.838000000     0.880000000    -1.338000000
C     0.287000000     0.578000000     0.716000000
H     0.730000000     1.484000000     1.170000000
C    -0.428000000    -0.231000000     1.634000000
H    -0.326000000    -0.031000000     2.698000000
C    -1.199000000    -1.305000000     1.173000000
H    -1.568000000    -2.048000000     1.875000000
C    -1.366000000    -1.544000000    -0.171000000
C    -2.099000000    -2.736000000    -0.790000000
O    -2.970000000    -3.271000000    -0.095000000
O    -1.808000000    -3.240000000    -1.820000000
