14
-81.87799
C    -0.532000000    -3.434000000     0.160000000
H    -0.616000000    -4.509000000     0.022000000
C    -0.533000000    -2.535000000    -0.872000000
H    -0.604000000    -2.838000000    -1.914000000
C    -0.484000000    -1.176000000    -0.580000000
H    -0.372000000    -0.453000000    -1.403000000
C    -0.573000000    -0.726000000     0.737000000
H    -0.677000000     0.349000000     0.858000000
C    -0.564000000    -1.634000000     1.743000000
H    -0.682000000    -1.292000000     2.768000000
C    -0.567000000    -2.998000000     1.468000000
C    -0.673000000    -3.875000000     2.625000000
O    -1.385000000    -3.532000000     3.560000000
O    -0.328000000    -5.024000000     2.599000000
