14
-80.27140
C     0.208000000    -2.178000000     0.647000000
H     0.836000000    -3.064000000     0.700000000
C     0.760000000    -1.147000000    -0.092000000
H     1.780000000    -1.312000000    -0.430000000
C     0.106000000     0.054000000    -0.318000000
H     0.742000000     0.920000000    -0.788000000
C    -1.209000000     0.217000000     0.197000000
H    -1.687000000     1.193000000     0.201000000
C    -1.730000000    -0.761000000     1.028000000
H    -2.752000000    -0.714000000     1.394000000
C    -1.052000000    -1.984000000     1.224000000
C    -1.755000000    -3.154000000     1.862000000
O    -2.829000000    -3.000000000     2.433000000
O    -1.360000000    -4.249000000     1.674000000
