14
-74.62797
C    -0.510000000    -2.249000000     0.493000000
H     0.070000000    -3.167000000     0.547000000
C     0.164000000    -1.078000000     0.049000000
H     1.190000000    -1.183000000    -0.294000000
C    -0.489000000     0.116000000    -0.031000000
H    -0.004000000     1.107000000    -0.293000000
C    -1.756000000     0.170000000     0.426000000
H    -2.247000000     1.139000000     0.414000000
C    -2.461000000    -0.972000000     0.747000000
H    -3.538000000    -0.847000000     0.821000000
C    -1.916000000    -2.181000000     0.766000000
C    -2.760000000    -3.340000000     1.097000000
O    -3.959000000    -3.218000000     1.311000000
O    -2.279000000    -4.391000000     1.523000000
