14
-81.03765
C    -0.408000000    -1.925000000     0.291000000
H    -0.373000000    -2.962000000     0.614000000
C     0.799000000    -1.215000000    -0.025000000
H     1.781000000    -1.665000000     0.097000000
C     0.771000000     0.175000000    -0.160000000
H     1.648000000     0.820000000    -0.285000000
C    -0.470000000     0.788000000    -0.152000000
H    -0.435000000     1.867000000    -0.282000000
C    -1.676000000     0.112000000     0.115000000
H    -2.573000000     0.723000000     0.175000000
C    -1.637000000    -1.234000000     0.452000000
C    -2.858000000    -2.004000000     0.794000000
O    -3.902000000    -1.451000000     0.953000000
O    -2.856000000    -3.207000000     1.066000000
