14
-88.83738
C    -0.527000000    -2.292000000    -0.581000000
H    -0.169000000    -3.298000000    -0.783000000
C     0.440000000    -1.220000000    -0.370000000
H     1.512000000    -1.397000000    -0.420000000
C     0.098000000     0.074000000    -0.079000000
H     0.899000000     0.863000000    -0.055000000
C    -1.242000000     0.367000000     0.153000000
H    -1.538000000     1.369000000     0.452000000
C    -2.202000000    -0.678000000    -0.022000000
H    -3.252000000    -0.430000000     0.110000000
C    -1.828000000    -2.007000000    -0.318000000
C    -2.827000000    -3.156000000    -0.441000000
O    -4.008000000    -2.984000000    -0.270000000
O    -2.373000000    -4.290000000    -0.654000000
