14
-85.42121
C    -1.338000000    -2.246000000     0.518000000
H    -1.138000000    -3.312000000     0.597000000
C    -0.287000000    -1.429000000     0.137000000
H     0.636000000    -1.865000000    -0.236000000
C    -0.510000000    -0.074000000    -0.012000000
H     0.204000000     0.636000000    -0.501000000
C    -1.654000000     0.530000000     0.430000000
H    -1.834000000     1.589000000     0.264000000
C    -2.625000000    -0.303000000     0.988000000
H    -3.541000000     0.233000000     1.223000000
C    -2.555000000    -1.640000000     1.000000000
C    -3.700000000    -2.478000000     1.447000000
O    -4.566000000    -1.983000000     2.142000000
O    -3.617000000    -3.721000000     1.312000000
