14
-78.19791
C    -0.447000000    -1.988000000     0.279000000
H    -0.163000000    -3.036000000     0.323000000
C     0.556000000    -1.062000000    -0.097000000
H     1.525000000    -1.550000000    -0.165000000
C     0.308000000     0.239000000    -0.329000000
H     1.005000000     0.896000000    -0.791000000
C    -1.029000000     0.707000000    -0.071000000
H    -1.286000000     1.754000000    -0.206000000
C    -2.080000000    -0.191000000     0.373000000
H    -3.079000000     0.168000000     0.607000000
C    -1.775000000    -1.593000000     0.534000000
C    -2.842000000    -2.445000000     1.054000000
O    -3.961000000    -2.066000000     1.045000000
O    -2.597000000    -3.544000000     1.492000000
