14
-86.14167
C    -0.450000000    -2.353000000    -0.509000000
H    -0.330000000    -3.407000000    -0.745000000
C     0.627000000    -1.470000000    -0.171000000
H     1.638000000    -1.869000000    -0.183000000
C     0.360000000    -0.061000000     0.049000000
H     1.189000000     0.604000000     0.235000000
C    -0.963000000     0.352000000     0.000000000
H    -1.179000000     1.406000000     0.160000000
C    -1.937000000    -0.484000000    -0.446000000
H    -2.976000000    -0.169000000    -0.483000000
C    -1.750000000    -1.864000000    -0.713000000
C    -2.919000000    -2.742000000    -1.086000000
O    -4.088000000    -2.325000000    -1.215000000
O    -2.757000000    -3.942000000    -1.078000000
