14
-73.79178
C    -2.325000000     1.484000000    -0.508000000
H    -3.321000000     1.370000000    -0.930000000
C    -1.419000000     0.528000000    -0.905000000
H    -1.777000000    -0.264000000    -1.559000000
C    -0.124000000     0.614000000    -0.477000000
H     0.537000000    -0.200000000    -0.600000000
C     0.209000000     1.705000000     0.330000000
H     1.242000000     1.685000000     0.669000000
C    -0.658000000     2.755000000     0.601000000
H    -0.217000000     3.708000000     0.884000000
C    -1.958000000     2.630000000     0.197000000
C    -2.812000000     3.841000000     0.411000000
O    -2.413000000     4.728000000     1.050000000
O    -3.659000000     3.962000000    -0.450000000
