14
-92.07979
C    -0.958000000    -1.810000000    -0.225000000
H    -0.591000000    -2.823000000    -0.368000000
C    -0.092000000    -0.701000000    -0.249000000
H     0.933000000    -0.898000000    -0.552000000
C    -0.525000000     0.606000000    -0.012000000
H     0.129000000     1.466000000     0.020000000
C    -1.836000000     0.857000000     0.315000000
H    -2.082000000     1.875000000     0.605000000
C    -2.765000000    -0.189000000     0.275000000
H    -3.816000000     0.008000000     0.468000000
C    -2.335000000    -1.509000000    -0.041000000
C    -3.348000000    -2.694000000    -0.007000000
O    -4.549000000    -2.388000000     0.008000000
O    -2.966000000    -3.826000000    -0.140000000
