14
-85.81562
C    -1.341000000    -2.030000000    -0.159000000
H    -1.384000000    -3.060000000    -0.503000000
C    -0.065000000    -1.452000000    -0.033000000
H     0.839000000    -2.044000000    -0.144000000
C    -0.030000000    -0.069000000     0.143000000
H     0.959000000     0.409000000     0.020000000
C    -1.195000000     0.660000000     0.277000000
H    -1.199000000     1.719000000     0.522000000
C    -2.475000000     0.026000000     0.215000000
H    -3.415000000     0.562000000     0.310000000
C    -2.556000000    -1.351000000    -0.098000000
C    -3.854000000    -2.052000000    -0.349000000
O    -4.845000000    -1.585000000     0.173000000
O    -3.962000000    -3.035000000    -1.018000000
