14
-91.22529
C    -0.457000000    -1.311000000    -0.331000000
H    -0.187000000    -2.278000000    -0.748000000
C     0.495000000    -0.269000000    -0.287000000
H     1.518000000    -0.400000000    -0.632000000
C     0.222000000     0.964000000     0.277000000
H     1.005000000     1.701000000     0.400000000
C    -1.002000000     1.164000000     0.866000000
H    -1.209000000     2.123000000     1.333000000
C    -2.078000000     0.223000000     0.767000000
H    -3.082000000     0.423000000     1.133000000
C    -1.798000000    -1.050000000     0.176000000
C    -2.915000000    -2.057000000     0.151000000
O    -4.019000000    -1.784000000     0.612000000
O    -2.574000000    -3.176000000    -0.234000000
