14
-77.40692
C    -1.640000000    -1.471000000     0.699000000
H    -2.134000000    -2.404000000     0.956000000
C    -0.411000000    -1.552000000     0.145000000
H     0.062000000    -2.514000000    -0.036000000
C     0.256000000    -0.407000000    -0.212000000
H     1.138000000    -0.591000000    -0.876000000
C    -0.297000000     0.865000000    -0.019000000
H     0.132000000     1.831000000    -0.276000000
C    -1.585000000     0.922000000     0.604000000
H    -2.170000000     1.838000000     0.633000000
C    -2.256000000    -0.226000000     0.934000000
C    -3.728000000    -0.302000000     1.263000000
O    -4.434000000     0.664000000     1.239000000
O    -4.245000000    -1.284000000     1.786000000
