14
-84.80755
C    -1.179000000    -1.126000000     1.300000000
H    -1.520000000    -2.125000000     1.558000000
C    -0.083000000    -0.950000000     0.473000000
H     0.397000000    -1.831000000     0.054000000
C     0.261000000     0.270000000     0.051000000
H     1.035000000     0.387000000    -0.728000000
C    -0.366000000     1.392000000     0.539000000
H    -0.110000000     2.374000000     0.148000000
C    -1.427000000     1.184000000     1.460000000
H    -2.165000000     1.951000000     1.683000000
C    -1.845000000    -0.088000000     1.909000000
C    -2.983000000    -0.329000000     2.911000000
O    -3.424000000     0.637000000     3.519000000
O    -3.542000000    -1.425000000     3.064000000
