14
-84.44485
C    -1.477000000    -2.365000000     0.473000000
H    -1.668000000    -3.426000000     0.336000000
C    -0.499000000    -1.659000000    -0.229000000
H     0.144000000    -2.176000000    -0.936000000
C    -0.366000000    -0.282000000    -0.082000000
H     0.313000000     0.278000000    -0.725000000
C    -1.144000000     0.380000000     0.831000000
H    -0.926000000     1.421000000     1.055000000
C    -2.175000000    -0.328000000     1.529000000
H    -2.791000000     0.167000000     2.275000000
C    -2.355000000    -1.677000000     1.297000000
C    -3.422000000    -2.546000000     1.982000000
O    -4.458000000    -1.957000000     2.316000000
O    -3.494000000    -3.744000000     2.001000000
