14
-90.93132
C    -0.445000000    -1.449000000     0.266000000
H    -0.600000000    -2.514000000     0.114000000
C     0.556000000    -0.733000000    -0.469000000
H     1.148000000    -1.189000000    -1.259000000
C     0.703000000     0.666000000    -0.252000000
H     1.366000000     1.340000000    -0.889000000
C    -0.152000000     1.321000000     0.631000000
H    -0.033000000     2.382000000     0.834000000
C    -1.148000000     0.621000000     1.332000000
H    -1.926000000     1.129000000     1.896000000
C    -1.250000000    -0.772000000     1.240000000
C    -2.425000000    -1.464000000     1.967000000
O    -3.023000000    -0.709000000     2.725000000
O    -2.632000000    -2.682000000     1.909000000
