14
-87.60210
C    -0.808000000    -1.323000000     0.764000000
H    -0.904000000    -2.405000000     0.808000000
C     0.163000000    -0.653000000     0.060000000
H     0.824000000    -1.218000000    -0.592000000
C     0.232000000     0.741000000    -0.014000000
H     0.950000000     1.236000000    -0.677000000
C    -0.720000000     1.456000000     0.710000000
H    -0.710000000     2.533000000     0.567000000
C    -1.730000000     0.752000000     1.460000000
H    -2.507000000     1.279000000     2.007000000
C    -1.787000000    -0.669000000     1.477000000
C    -2.928000000    -1.367000000     2.202000000
O    -3.834000000    -0.716000000     2.658000000
O    -2.988000000    -2.582000000     2.296000000
