14
-86.33466
C    -2.591000000     1.849000000    -0.522000000
H    -3.660000000     1.832000000    -0.722000000
C    -1.882000000     0.690000000    -0.928000000
H    -2.416000000    -0.134000000    -1.395000000
C    -0.533000000     0.627000000    -0.648000000
H     0.108000000    -0.270000000    -0.812000000
C     0.014000000     1.623000000     0.145000000
H     1.042000000     1.516000000     0.484000000
C    -0.686000000     2.768000000     0.570000000
H    -0.276000000     3.530000000     1.228000000
C    -1.993000000     2.898000000     0.172000000
C    -2.736000000     4.223000000     0.567000000
O    -2.189000000     5.057000000     1.201000000
O    -3.874000000     4.418000000     0.162000000
