14
-82.26325
C    -2.241000000    -1.664000000     1.317000000
H    -2.743000000    -2.627000000     1.350000000
C    -1.851000000    -1.144000000     0.070000000
H    -2.108000000    -1.709000000    -0.823000000
C    -1.415000000     0.177000000    -0.011000000
H    -1.120000000     0.682000000    -0.919000000
C    -1.622000000     0.971000000     1.089000000
H    -1.483000000     2.049000000     1.092000000
C    -2.007000000     0.433000000     2.320000000
H    -2.239000000     1.125000000     3.126000000
C    -2.203000000    -0.884000000     2.517000000
C    -2.735000000    -1.482000000     3.792000000
O    -3.021000000    -0.804000000     4.752000000
O    -3.215000000    -2.665000000     3.728000000
