14
-82.85911
C    -0.086000000    -1.714000000     0.350000000
H     0.191000000    -2.753000000     0.188000000
C     0.558000000    -0.764000000    -0.422000000
H     1.334000000    -1.055000000    -1.125000000
C     0.187000000     0.553000000    -0.261000000
H     0.642000000     1.326000000    -0.750000000
C    -0.703000000     0.927000000     0.748000000
H    -1.044000000     1.955000000     0.837000000
C    -1.309000000     0.010000000     1.595000000
H    -1.970000000     0.350000000     2.387000000
C    -1.054000000    -1.326000000     1.340000000
C    -1.877000000    -2.421000000     1.935000000
O    -2.625000000    -2.208000000     2.851000000
O    -1.755000000    -3.569000000     1.575000000
