14
-89.17372
C    -1.080000000    -1.111000000     0.824000000
H    -1.313000000    -2.173000000     0.836000000
C    -0.093000000    -0.654000000    -0.101000000
H     0.519000000    -1.322000000    -0.701000000
C     0.004000000     0.712000000    -0.322000000
H     0.689000000     1.148000000    -1.041000000
C    -0.708000000     1.641000000     0.419000000
H    -0.630000000     2.721000000     0.322000000
C    -1.653000000     1.210000000     1.369000000
H    -2.167000000     1.935000000     1.995000000
C    -1.862000000    -0.177000000     1.521000000
C    -3.109000000    -0.684000000     2.222000000
O    -3.874000000     0.084000000     2.743000000
O    -3.385000000    -1.897000000     2.238000000
