14
-93.13624
C    -0.544000000    -1.615000000     0.899000000
H    -0.381000000    -2.687000000     0.974000000
C     0.311000000    -0.812000000     0.057000000
H     1.063000000    -1.267000000    -0.582000000
C     0.256000000     0.609000000     0.100000000
H     0.946000000     1.325000000    -0.424000000
C    -0.755000000     1.181000000     0.848000000
H    -0.889000000     2.259000000     0.804000000
C    -1.645000000     0.404000000     1.600000000
H    -2.398000000     0.889000000     2.216000000
C    -1.468000000    -1.004000000     1.735000000
C    -2.302000000    -1.837000000     2.712000000
O    -3.307000000    -1.299000000     3.205000000
O    -2.041000000    -3.051000000     2.808000000
