14
-65.82771
C    -1.289000000    -1.664000000    -0.533000000
H    -1.164000000    -2.509000000    -1.205000000
C    -0.180000000    -0.784000000    -0.281000000
H     0.762000000    -0.918000000    -0.806000000
C    -0.351000000     0.240000000     0.579000000
H     0.387000000     0.959000000     0.783000000
C    -1.527000000     0.332000000     1.408000000
H    -1.569000000     1.163000000     2.108000000
C    -2.600000000    -0.593000000     1.182000000
H    -3.567000000    -0.534000000     1.675000000
C    -2.468000000    -1.602000000     0.218000000
C    -3.591000000    -2.514000000    -0.024000000
O    -4.457000000    -2.746000000     0.764000000
O    -3.731000000    -3.168000000    -0.989000000
