14
-92.65722
C    -1.768000000    -1.506000000    -0.133000000
H    -2.076000000    -2.450000000    -0.573000000
C    -0.503000000    -0.997000000    -0.466000000
H     0.176000000    -1.592000000    -1.071000000
C    -0.118000000     0.241000000     0.049000000
H     0.898000000     0.576000000    -0.127000000
C    -1.040000000     0.946000000     0.867000000
H    -0.739000000     1.885000000     1.325000000
C    -2.305000000     0.435000000     1.113000000
H    -2.957000000     1.047000000     1.732000000
C    -2.764000000    -0.782000000     0.609000000
C    -4.248000000    -1.188000000     0.806000000
O    -4.935000000    -0.391000000     1.407000000
O    -4.602000000    -2.315000000     0.485000000
