14
-90.02446
C    -2.150000000    -1.518000000    -0.674000000
H    -2.315000000    -2.401000000    -1.286000000
C    -0.867000000    -1.027000000    -0.572000000
H    -0.018000000    -1.490000000    -1.068000000
C    -0.634000000     0.148000000     0.095000000
H     0.339000000     0.663000000     0.070000000
C    -1.635000000     0.773000000     0.790000000
H    -1.370000000     1.738000000     1.213000000
C    -2.947000000     0.241000000     0.761000000
H    -3.722000000     0.675000000     1.388000000
C    -3.258000000    -0.918000000     0.048000000
C    -4.649000000    -1.503000000     0.179000000
O    -5.426000000    -1.029000000     1.015000000
O    -5.047000000    -2.436000000    -0.545000000
