14
-74.99709
C    -1.094000000    -1.355000000    -1.059000000
H    -1.476000000    -2.172000000    -1.666000000
C     0.267000000    -1.288000000    -0.804000000
H     0.991000000    -2.045000000    -1.094000000
C     0.767000000    -0.088000000    -0.301000000
H     1.815000000     0.090000000    -0.239000000
C    -0.038000000     0.864000000     0.174000000
H     0.423000000     1.710000000     0.677000000
C    -1.424000000     0.669000000     0.126000000
H    -2.069000000     1.393000000     0.619000000
C    -2.005000000    -0.417000000    -0.489000000
C    -3.433000000    -0.666000000    -0.635000000
O    -4.256000000    -0.033000000    -0.032000000
O    -3.748000000    -1.757000000    -1.025000000
