14
-77.35600
C    -1.431000000    -2.025000000    -0.833000000
H    -1.477000000    -2.817000000    -1.576000000
C    -0.174000000    -1.494000000    -0.491000000
H     0.777000000    -1.831000000    -0.896000000
C    -0.062000000    -0.294000000     0.233000000
H     0.880000000     0.233000000     0.340000000
C    -1.206000000     0.309000000     0.780000000
H    -1.065000000     1.249000000     1.307000000
C    -2.463000000    -0.276000000     0.556000000
H    -3.313000000     0.162000000     1.072000000
C    -2.557000000    -1.383000000    -0.290000000
C    -3.885000000    -2.097000000    -0.539000000
O    -4.652000000    -2.085000000     0.379000000
O    -3.951000000    -3.076000000    -1.274000000
