14
-81.69489
C    -1.547000000     0.966000000    -0.911000000
H    -2.335000000     0.965000000    -1.659000000
C    -0.679000000    -0.151000000    -0.586000000
H    -0.657000000    -1.097000000    -1.119000000
C     0.187000000    -0.130000000     0.466000000
H     0.715000000    -1.079000000     0.655000000
C     0.246000000     1.030000000     1.266000000
H     0.969000000     1.043000000     2.077000000
C    -0.605000000     2.110000000     1.066000000
H    -0.735000000     2.927000000     1.771000000
C    -1.469000000     2.124000000    -0.036000000
C    -2.446000000     3.275000000    -0.257000000
O    -2.900000000     4.011000000     0.567000000
O    -2.662000000     3.528000000    -1.445000000
