14
-84.17120
C    -1.910000000    -1.500000000    -0.848000000
H    -2.263000000    -2.391000000    -1.360000000
C    -0.551000000    -1.318000000    -0.751000000
H     0.188000000    -1.983000000    -1.192000000
C    -0.162000000    -0.073000000    -0.228000000
H     0.947000000     0.109000000    -0.075000000
C    -1.124000000     0.809000000     0.220000000
H    -0.775000000     1.801000000     0.495000000
C    -2.482000000     0.553000000     0.324000000
H    -3.235000000     1.199000000     0.767000000
C    -2.858000000    -0.622000000    -0.306000000
C    -4.360000000    -0.927000000    -0.455000000
O    -5.292000000    -0.208000000    -0.020000000
O    -4.731000000    -1.883000000    -1.113000000
