14
-91.00099
C    -1.859000000    -1.457000000    -0.629000000
H    -2.053000000    -2.318000000    -1.265000000
C    -0.603000000    -1.080000000    -0.196000000
H     0.324000000    -1.591000000    -0.440000000
C    -0.439000000     0.079000000     0.581000000
H     0.551000000     0.372000000     1.004000000
C    -1.563000000     0.836000000     0.878000000
H    -1.489000000     1.693000000     1.542000000
C    -2.851000000     0.499000000     0.412000000
H    -3.633000000     1.198000000     0.694000000
C    -2.995000000    -0.700000000    -0.311000000
C    -4.396000000    -1.225000000    -0.645000000
O    -5.390000000    -0.777000000    -0.037000000
O    -4.577000000    -2.227000000    -1.349000000
