14
-81.48149
C    -0.520000000    -2.592000000    -0.328000000
H    -0.266000000    -3.616000000    -0.589000000
C     0.386000000    -1.551000000    -0.455000000
H     1.392000000    -1.663000000    -0.851000000
C     0.080000000    -0.272000000    -0.095000000
H     0.806000000     0.467000000    -0.014000000
C    -1.186000000    -0.023000000     0.411000000
H    -1.470000000     0.957000000     0.785000000
C    -2.198000000    -1.039000000     0.446000000
H    -3.191000000    -0.763000000     0.792000000
C    -1.843000000    -2.384000000     0.114000000
C    -2.871000000    -3.496000000     0.110000000
O    -3.950000000    -3.260000000     0.603000000
O    -2.530000000    -4.689000000     0.081000000
