14
-89.83110
C    -0.749000000    -2.294000000    -0.834000000
H    -0.769000000    -3.306000000    -1.229000000
C     0.493000000    -1.702000000    -0.503000000
H     1.408000000    -2.274000000    -0.637000000
C     0.534000000    -0.401000000     0.112000000
H     1.492000000     0.098000000     0.458000000
C    -0.673000000     0.242000000     0.286000000
H    -0.755000000     1.222000000     0.749000000
C    -1.869000000    -0.314000000    -0.116000000
H    -2.805000000     0.206000000     0.067000000
C    -1.956000000    -1.615000000    -0.620000000
C    -3.340000000    -2.205000000    -0.959000000
O    -4.324000000    -1.625000000    -0.492000000
O    -3.399000000    -3.254000000    -1.498000000
