14
-79.57460
C    -0.506000000    -2.576000000    -0.842000000
H    -0.262000000    -3.549000000    -1.259000000
C     0.507000000    -1.628000000    -0.910000000
H     1.442000000    -1.972000000    -1.345000000
C     0.329000000    -0.328000000    -0.444000000
H     1.207000000     0.265000000    -0.452000000
C    -0.917000000     0.049000000    -0.093000000
H    -1.071000000     1.070000000     0.246000000
C    -2.012000000    -0.828000000    -0.077000000
H    -2.961000000    -0.471000000     0.315000000
C    -1.798000000    -2.132000000    -0.469000000
C    -2.917000000    -3.107000000    -0.305000000
O    -3.928000000    -2.901000000     0.334000000
O    -2.757000000    -4.319000000    -0.546000000
