14
-84.74703
C    -1.136000000    -1.831000000    -0.621000000
H    -0.901000000    -2.666000000    -1.276000000
C    -0.086000000    -0.876000000    -0.760000000
H     0.677000000    -1.119000000    -1.495000000
C    -0.044000000     0.206000000     0.097000000
H     0.759000000     0.963000000    -0.011000000
C    -1.081000000     0.398000000     0.999000000
H    -1.104000000     1.175000000     1.759000000
C    -2.111000000    -0.525000000     1.058000000
H    -2.789000000    -0.477000000     1.906000000
C    -2.175000000    -1.659000000     0.278000000
C    -3.044000000    -2.836000000     0.544000000
O    -3.948000000    -2.796000000     1.416000000
O    -2.655000000    -3.881000000     0.075000000
