14
-96.13822
C    -1.239000000    -2.015000000    -1.063000000
H    -1.355000000    -2.933000000    -1.634000000
C    -0.014000000    -1.428000000    -0.686000000
H     0.981000000    -1.814000000    -0.891000000
C    -0.053000000    -0.250000000     0.070000000
H     0.906000000     0.158000000     0.372000000
C    -1.229000000     0.311000000     0.487000000
H    -1.172000000     1.256000000     1.022000000
C    -2.452000000    -0.289000000     0.135000000
H    -3.379000000     0.202000000     0.418000000
C    -2.470000000    -1.436000000    -0.635000000
C    -3.741000000    -2.142000000    -1.029000000
O    -4.808000000    -1.575000000    -0.735000000
O    -3.643000000    -3.287000000    -1.523000000
