14
-84.71446
C    -1.074000000    -2.521000000    -0.290000000
H    -0.699000000    -3.344000000    -0.892000000
C    -0.151000000    -1.517000000    -0.081000000
H     0.846000000    -1.539000000    -0.514000000
C    -0.560000000    -0.316000000     0.530000000
H     0.188000000     0.408000000     0.622000000
C    -1.893000000    -0.125000000     0.875000000
H    -2.220000000     0.859000000     1.198000000
C    -2.799000000    -1.148000000     0.573000000
H    -3.842000000    -0.941000000     0.801000000
C    -2.407000000    -2.398000000    -0.014000000
C    -3.391000000    -3.554000000    -0.121000000
O    -4.569000000    -3.349000000     0.063000000
O    -2.994000000    -4.690000000    -0.208000000
