14
-90.14628
C    -1.647000000    -3.241000000    -0.340000000
H    -1.620000000    -4.317000000    -0.487000000
C    -0.560000000    -2.369000000    -0.480000000
H     0.337000000    -2.811000000    -0.907000000
C    -0.626000000    -1.102000000     0.090000000
H     0.220000000    -0.409000000    -0.012000000
C    -1.753000000    -0.655000000     0.771000000
H    -1.836000000     0.322000000     1.242000000
C    -2.877000000    -1.470000000     0.780000000
H    -3.753000000    -1.152000000     1.339000000
C    -2.828000000    -2.779000000     0.283000000
C    -3.973000000    -3.749000000     0.443000000
O    -5.056000000    -3.433000000     0.940000000
O    -3.834000000    -4.846000000    -0.045000000
