14
-85.77671
C     0.225000000    -2.054000000     0.038000000
H     0.650000000    -2.963000000    -0.381000000
C     0.712000000    -0.745000000    -0.260000000
H     1.621000000    -0.652000000    -0.848000000
C     0.003000000     0.373000000     0.197000000
H     0.464000000     1.346000000    -0.034000000
C    -1.172000000     0.238000000     0.889000000
H    -1.755000000     1.148000000     1.007000000
C    -1.737000000    -1.000000000     0.996000000
H    -2.727000000    -1.002000000     1.446000000
C    -1.044000000    -2.179000000     0.602000000
C    -1.641000000    -3.530000000     0.889000000
O    -2.804000000    -3.545000000     1.269000000
O    -1.041000000    -4.537000000     0.653000000
