14
-86.98951
C    -0.511000000    -2.505000000     1.248000000
H    -0.023000000    -3.472000000     1.347000000
C     0.100000000    -1.511000000     0.497000000
H     1.077000000    -1.688000000     0.056000000
C    -0.592000000    -0.312000000     0.287000000
H    -0.002000000     0.513000000    -0.251000000
C    -1.894000000    -0.135000000     0.810000000
H    -2.477000000     0.763000000     0.619000000
C    -2.513000000    -1.121000000     1.682000000
H    -3.519000000    -0.941000000     2.053000000
C    -1.813000000    -2.331000000     1.814000000
C    -2.400000000    -3.499000000     2.502000000
O    -3.521000000    -3.371000000     3.023000000
O    -1.853000000    -4.571000000     2.560000000
