14
-89.34729
C    -0.257000000    -1.939000000    -0.470000000
H     0.201000000    -2.908000000    -0.650000000
C     0.514000000    -0.776000000    -0.406000000
H     1.577000000    -0.825000000    -0.628000000
C    -0.025000000     0.386000000     0.086000000
H     0.469000000     1.353000000     0.152000000
C    -1.322000000     0.423000000     0.468000000
H    -1.638000000     1.383000000     0.868000000
C    -2.105000000    -0.691000000     0.491000000
H    -3.111000000    -0.699000000     0.901000000
C    -1.594000000    -1.892000000     0.086000000
C    -2.400000000    -3.175000000     0.295000000
O    -3.607000000    -3.062000000     0.531000000
O    -1.810000000    -4.246000000     0.077000000
