14
-82.25853
C    -1.625000000     1.965000000    -1.001000000
H    -2.303000000     2.317000000    -1.775000000
C    -1.184000000     0.650000000    -0.981000000
H    -1.706000000    -0.072000000    -1.603000000
C    -0.117000000     0.259000000    -0.181000000
H     0.117000000    -0.796000000    -0.025000000
C     0.383000000     1.148000000     0.741000000
H     1.241000000     0.861000000     1.343000000
C    -0.089000000     2.442000000     0.825000000
H     0.384000000     3.143000000     1.509000000
C    -1.144000000     2.899000000    -0.011000000
C    -1.618000000     4.326000000     0.035000000
O    -1.305000000     5.084000000     0.902000000
O    -2.248000000     4.874000000    -0.921000000
