14
-80.28624
C    -2.030000000    -2.009000000    -0.731000000
H    -2.375000000    -2.927000000    -1.202000000
C    -0.895000000    -1.300000000    -1.187000000
H    -0.411000000    -1.614000000    -2.108000000
C    -0.507000000    -0.073000000    -0.627000000
H     0.466000000     0.470000000    -0.903000000
C    -1.210000000     0.330000000     0.481000000
H    -0.947000000     1.276000000     0.946000000
C    -2.388000000    -0.358000000     0.927000000
H    -2.960000000     0.026000000     1.768000000
C    -2.748000000    -1.553000000     0.337000000
C    -3.972000000    -2.246000000     0.773000000
O    -4.290000000    -2.142000000     1.923000000
O    -4.467000000    -3.171000000     0.138000000
