14
-85.37650
C    -0.202000000    -2.623000000    -0.304000000
H     0.118000000    -3.646000000    -0.482000000
C     0.459000000    -1.475000000    -0.833000000
H     1.222000000    -1.606000000    -1.596000000
C     0.045000000    -0.207000000    -0.416000000
H     0.457000000     0.679000000    -0.857000000
C    -0.916000000    -0.082000000     0.541000000
H    -1.263000000     0.925000000     0.758000000
C    -1.562000000    -1.209000000     1.052000000
H    -2.325000000    -1.091000000     1.817000000
C    -1.089000000    -2.432000000     0.650000000
C    -1.767000000    -3.694000000     1.325000000
O    -2.521000000    -3.581000000     2.316000000
O    -1.304000000    -4.830000000     1.034000000
