14
-83.86432
C    -0.686000000    -1.931000000    -0.347000000
H    -0.621000000    -2.705000000    -1.107000000
C    -0.180000000    -0.668000000    -0.450000000
H     0.397000000    -0.492000000    -1.355000000
C    -0.344000000     0.326000000     0.529000000
H    -0.042000000     1.346000000     0.490000000
C    -1.112000000     0.050000000     1.648000000
H    -1.361000000     0.801000000     2.393000000
C    -1.605000000    -1.286000000     1.760000000
H    -2.222000000    -1.574000000     2.607000000
C    -1.298000000    -2.316000000     0.862000000
C    -1.870000000    -3.729000000     0.911000000
O    -2.099000000    -4.327000000     1.966000000
O    -2.216000000    -4.148000000    -0.134000000
