14
-84.06465
C     0.105000000    -2.844000000     0.238000000
H     0.462000000    -3.797000000    -0.143000000
C     0.563000000    -1.648000000    -0.329000000
H     1.364000000    -1.748000000    -1.057000000
C     0.096000000    -0.454000000     0.212000000
H     0.432000000     0.438000000    -0.208000000
C    -0.793000000    -0.482000000     1.271000000
H    -1.135000000     0.460000000     1.692000000
C    -1.242000000    -1.659000000     1.850000000
H    -2.037000000    -1.573000000     2.585000000
C    -0.820000000    -2.844000000     1.297000000
C    -1.276000000    -4.147000000     1.771000000
O    -2.136000000    -4.182000000     2.655000000
O    -1.065000000    -5.151000000     1.153000000
