14
-79.81634
C    -0.033000000    -2.346000000     0.095000000
H     0.494000000    -3.135000000    -0.435000000
C     0.309000000    -1.039000000    -0.197000000
H     1.096000000    -0.865000000    -0.927000000
C    -0.242000000     0.011000000     0.410000000
H    -0.097000000     1.004000000     0.047000000
C    -1.248000000    -0.223000000     1.349000000
H    -1.814000000     0.564000000     1.839000000
C    -1.536000000    -1.560000000     1.718000000
H    -2.425000000    -1.735000000     2.318000000
C    -0.982000000    -2.626000000     1.041000000
C    -1.266000000    -4.098000000     1.318000000
O    -1.986000000    -4.352000000     2.254000000
O    -1.134000000    -4.977000000     0.462000000
