14
-89.34348
C    -0.085000000    -2.643000000     0.715000000
H     0.144000000    -3.656000000     0.392000000
C     0.374000000    -1.534000000     0.034000000
H     1.117000000    -1.711000000    -0.740000000
C    -0.115000000    -0.290000000     0.270000000
H     0.250000000     0.570000000    -0.353000000
C    -0.983000000    -0.055000000     1.309000000
H    -1.367000000     0.937000000     1.536000000
C    -1.373000000    -1.109000000     2.126000000
H    -1.995000000    -0.836000000     2.974000000
C    -0.971000000    -2.446000000     1.842000000
C    -1.473000000    -3.580000000     2.752000000
O    -1.974000000    -3.167000000     3.802000000
O    -1.659000000    -4.737000000     2.332000000
