14
-78.62808
C    -0.802000000    -2.394000000    -0.056000000
H    -0.794000000    -3.387000000    -0.496000000
C    -0.146000000    -1.385000000    -0.762000000
H     0.414000000    -1.642000000    -1.658000000
C    -0.158000000    -0.043000000    -0.287000000
H     0.255000000     0.822000000    -0.777000000
C    -0.702000000     0.155000000     1.000000000
H    -0.703000000     1.180000000     1.361000000
C    -1.183000000    -0.904000000     1.740000000
H    -1.525000000    -0.717000000     2.755000000
C    -1.387000000    -2.212000000     1.188000000
C    -2.204000000    -3.343000000     1.849000000
O    -2.818000000    -3.271000000     2.843000000
O    -2.485000000    -4.322000000     1.129000000
