14
-70.73803
C    -1.076000000    -1.773000000    -0.541000000
H    -1.354000000    -2.744000000    -0.944000000
C    -0.038000000    -1.050000000    -1.188000000
H     0.547000000    -1.459000000    -2.008000000
C     0.331000000     0.233000000    -0.720000000
H     1.046000000     0.829000000    -1.144000000
C    -0.302000000     0.731000000     0.422000000
H    -0.072000000     1.765000000     0.666000000
C    -1.465000000     0.086000000     0.925000000
H    -1.980000000     0.471000000     1.801000000
C    -1.869000000    -1.205000000     0.460000000
C    -3.082000000    -1.860000000     1.078000000
O    -3.630000000    -1.359000000     1.992000000
O    -3.240000000    -3.044000000     0.983000000
