14
-82.23844
C    -2.250000000     1.939000000    -0.598000000
H    -3.270000000     2.111000000    -0.931000000
C    -1.665000000     0.721000000    -0.823000000
H    -2.272000000    -0.093000000    -1.210000000
C    -0.377000000     0.488000000    -0.464000000
H     0.063000000    -0.531000000    -0.554000000
C     0.471000000     1.483000000     0.058000000
H     1.469000000     1.140000000     0.316000000
C    -0.142000000     2.685000000     0.352000000
H     0.385000000     3.378000000     1.001000000
C    -1.431000000     2.992000000    -0.088000000
C    -2.046000000     4.362000000     0.098000000
O    -1.302000000     5.268000000     0.425000000
O    -3.132000000     4.487000000    -0.320000000
