14
-87.50722
C    -0.972000000    -1.434000000    -0.540000000
H    -1.478000000    -2.311000000    -0.937000000
C    -0.040000000    -0.757000000    -1.357000000
H     0.433000000    -1.073000000    -2.284000000
C     0.501000000     0.419000000    -0.901000000
H     1.187000000     1.004000000    -1.491000000
C     0.156000000     0.914000000     0.378000000
H     0.551000000     1.848000000     0.768000000
C    -0.802000000     0.211000000     1.114000000
H    -1.175000000     0.719000000     2.000000000
C    -1.428000000    -0.954000000     0.644000000
C    -2.310000000    -1.782000000     1.532000000
O    -2.544000000    -1.441000000     2.694000000
O    -2.819000000    -2.827000000     1.122000000
