14
-88.21959
C    -1.930000000    -1.706000000    -0.653000000
H    -2.323000000    -2.582000000    -1.162000000
C    -0.715000000    -1.105000000    -1.064000000
H    -0.241000000    -1.262000000    -2.029000000
C    -0.209000000    -0.001000000    -0.344000000
H     0.723000000     0.443000000    -0.678000000
C    -0.744000000     0.318000000     0.901000000
H    -0.240000000     1.014000000     1.566000000
C    -1.831000000    -0.429000000     1.418000000
H    -2.159000000    -0.152000000     2.416000000
C    -2.455000000    -1.327000000     0.595000000
C    -3.649000000    -2.053000000     1.189000000
O    -3.627000000    -2.282000000     2.390000000
O    -4.420000000    -2.639000000     0.424000000
