14
-86.67715
C    -0.931000000    -1.848000000     0.493000000
H    -0.942000000    -2.800000000    -0.031000000
C     0.043000000    -0.862000000     0.196000000
H     0.792000000    -1.070000000    -0.564000000
C    -0.070000000     0.424000000     0.795000000
H     0.655000000     1.166000000     0.618000000
C    -1.135000000     0.633000000     1.658000000
H    -1.239000000     1.619000000     2.103000000
C    -2.113000000    -0.293000000     1.973000000
H    -2.968000000    -0.052000000     2.600000000
C    -1.970000000    -1.580000000     1.407000000
C    -3.045000000    -2.643000000     1.783000000
O    -4.087000000    -2.297000000     2.282000000
O    -2.968000000    -3.790000000     1.414000000
