14
-85.81117
C    -1.243000000    -2.117000000     0.897000000
H    -1.103000000    -3.167000000     0.651000000
C    -0.339000000    -1.244000000     0.352000000
H     0.471000000    -1.531000000    -0.313000000
C    -0.462000000     0.111000000     0.629000000
H     0.307000000     0.703000000     0.175000000
C    -1.535000000     0.555000000     1.451000000
H    -1.602000000     1.608000000     1.711000000
C    -2.384000000    -0.346000000     2.079000000
H    -3.218000000    -0.028000000     2.700000000
C    -2.371000000    -1.690000000     1.744000000
C    -3.351000000    -2.649000000     2.319000000
O    -4.364000000    -2.134000000     2.698000000
O    -3.152000000    -3.870000000     2.399000000
