14
-85.43681
C    -0.756000000    -2.026000000    -0.487000000
H    -0.947000000    -3.000000000    -0.930000000
C     0.370000000    -1.275000000    -0.813000000
H     1.091000000    -1.615000000    -1.552000000
C     0.644000000    -0.037000000    -0.201000000
H     1.548000000     0.495000000    -0.525000000
C    -0.310000000     0.509000000     0.676000000
H    -0.094000000     1.456000000     1.165000000
C    -1.428000000    -0.249000000     1.069000000
H    -2.154000000    -0.019000000     1.844000000
C    -1.661000000    -1.532000000     0.512000000
C    -2.823000000    -2.378000000     0.981000000
O    -3.729000000    -2.048000000     1.751000000
O    -3.084000000    -3.401000000     0.327000000
