14
-88.80130
C    -1.396000000    -1.877000000     0.425000000
H    -1.476000000    -2.897000000     0.059000000
C    -0.242000000    -1.158000000     0.280000000
H     0.695000000    -1.539000000    -0.117000000
C    -0.103000000     0.183000000     0.644000000
H     0.738000000     0.788000000     0.439000000
C    -1.252000000     0.821000000     1.096000000
H    -1.168000000     1.892000000     1.261000000
C    -2.432000000     0.101000000     1.317000000
H    -3.230000000     0.579000000     1.881000000
C    -2.534000000    -1.272000000     0.970000000
C    -3.832000000    -2.011000000     1.225000000
O    -4.802000000    -1.388000000     1.701000000
O    -3.789000000    -3.201000000     1.161000000
