14
-86.35246
C    -0.937000000    -2.744000000     0.039000000
H    -1.048000000    -3.770000000    -0.301000000
C     0.004000000    -1.847000000    -0.541000000
H     0.712000000    -2.224000000    -1.275000000
C    -0.055000000    -0.504000000    -0.224000000
H     0.529000000     0.241000000    -0.772000000
C    -0.768000000    -0.135000000     0.932000000
H    -0.629000000     0.869000000     1.323000000
C    -1.492000000    -1.061000000     1.701000000
H    -2.056000000    -0.767000000     2.582000000
C    -1.686000000    -2.318000000     1.135000000
C    -2.640000000    -3.317000000     1.814000000
O    -3.282000000    -3.131000000     2.835000000
O    -2.773000000    -4.408000000     1.290000000
