14
-87.45191
C    -0.514000000    -1.514000000     0.459000000
H    -0.236000000    -2.563000000     0.512000000
C     0.423000000    -0.693000000    -0.198000000
H     1.316000000    -1.051000000    -0.704000000
C     0.217000000     0.673000000    -0.111000000
H     0.941000000     1.360000000    -0.571000000
C    -0.825000000     1.207000000     0.595000000
H    -0.810000000     2.278000000     0.779000000
C    -1.754000000     0.408000000     1.278000000
H    -2.614000000     0.862000000     1.764000000
C    -1.603000000    -0.979000000     1.135000000
C    -2.760000000    -1.916000000     1.556000000
O    -3.656000000    -1.604000000     2.275000000
O    -2.720000000    -3.003000000     0.992000000
