14
-89.98694
C    -2.843000000    -2.149000000    -1.228000000
H    -3.270000000    -2.548000000    -2.144000000
C    -1.729000000    -1.262000000    -1.247000000
H    -1.313000000    -1.062000000    -2.231000000
C    -1.171000000    -0.709000000    -0.085000000
H    -0.322000000    -0.053000000    -0.097000000
C    -1.765000000    -1.092000000     1.128000000
H    -1.298000000    -0.785000000     2.060000000
C    -2.919000000    -1.907000000     1.116000000
H    -3.363000000    -2.119000000     2.085000000
C    -3.457000000    -2.467000000    -0.055000000
C    -4.692000000    -3.281000000    -0.073000000
O    -5.309000000    -3.414000000     0.953000000
O    -5.057000000    -3.922000000    -1.094000000
