14
-87.49351
C    -1.219000000    -1.851000000     0.124000000
H    -1.403000000    -2.851000000    -0.261000000
C    -0.325000000    -0.996000000    -0.452000000
H     0.382000000    -1.200000000    -1.252000000
C    -0.160000000     0.246000000     0.161000000
H     0.591000000     0.898000000    -0.331000000
C    -0.937000000     0.644000000     1.288000000
H    -0.795000000     1.585000000     1.813000000
C    -1.897000000    -0.200000000     1.749000000
H    -2.476000000     0.166000000     2.593000000
C    -1.959000000    -1.482000000     1.261000000
C    -3.013000000    -2.486000000     1.811000000
O    -3.853000000    -2.099000000     2.575000000
O    -2.973000000    -3.660000000     1.450000000
