14
-85.81712
C    -1.276000000    -1.868000000     0.083000000
H    -1.530000000    -2.910000000    -0.096000000
C    -0.291000000    -1.219000000    -0.687000000
H     0.128000000    -1.711000000    -1.561000000
C    -0.087000000     0.109000000    -0.495000000
H     0.546000000     0.749000000    -1.067000000
C    -0.725000000     0.766000000     0.557000000
H    -0.493000000     1.809000000     0.756000000
C    -1.684000000     0.120000000     1.344000000
H    -2.075000000     0.739000000     2.148000000
C    -1.997000000    -1.206000000     1.050000000
C    -3.153000000    -1.876000000     1.823000000
O    -3.896000000    -1.174000000     2.470000000
O    -3.518000000    -3.024000000     1.599000000
