14
-86.01946
C    -2.628000000    -2.014000000    -1.097000000
H    -3.044000000    -2.412000000    -2.019000000
C    -1.504000000    -1.204000000    -1.180000000
H    -0.950000000    -0.900000000    -2.065000000
C    -0.898000000    -0.802000000    -0.036000000
H     0.008000000    -0.192000000    -0.146000000
C    -1.383000000    -1.170000000     1.228000000
H    -0.962000000    -0.839000000     2.173000000
C    -2.571000000    -1.867000000     1.296000000
H    -2.990000000    -2.067000000     2.278000000
C    -3.224000000    -2.334000000     0.155000000
C    -4.407000000    -3.285000000     0.152000000
O    -4.934000000    -3.514000000     1.207000000
O    -5.000000000    -3.604000000    -0.899000000
