14
-81.71181
C    -1.148000000    -2.399000000    -0.142000000
H    -1.243000000    -3.261000000    -0.797000000
C    -0.232000000    -1.414000000    -0.410000000
H     0.402000000    -1.462000000    -1.291000000
C    -0.207000000    -0.241000000     0.340000000
H     0.553000000     0.525000000     0.059000000
C    -1.157000000    -0.036000000     1.322000000
H    -1.219000000     0.953000000     1.769000000
C    -2.009000000    -1.045000000     1.663000000
H    -2.782000000    -0.924000000     2.417000000
C    -2.039000000    -2.218000000     0.917000000
C    -3.054000000    -3.314000000     1.220000000
O    -3.598000000    -3.297000000     2.311000000
O    -3.585000000    -3.940000000     0.368000000
