14
-76.67799
C    -1.904000000     1.536000000    -0.452000000
H    -2.933000000     1.427000000    -0.783000000
C    -1.025000000     0.498000000    -0.481000000
H    -1.332000000    -0.486000000    -0.825000000
C     0.208000000     0.608000000     0.104000000
H     0.844000000    -0.283000000     0.202000000
C     0.552000000     1.840000000     0.642000000
H     1.568000000     1.994000000     0.996000000
C    -0.288000000     2.952000000     0.552000000
H     0.128000000     3.870000000     0.961000000
C    -1.590000000     2.792000000    -0.014000000
C    -2.492000000     3.940000000    -0.170000000
O    -2.071000000     5.015000000     0.280000000
O    -3.328000000     4.076000000    -1.050000000
