14
-88.19779
C    -2.247000000    -1.708000000     0.844000000
H    -2.743000000    -2.501000000     1.398000000
C    -0.946000000    -1.242000000     1.263000000
H    -0.467000000    -1.746000000     2.099000000
C    -0.289000000    -0.346000000     0.463000000
H     0.752000000    -0.014000000     0.695000000
C    -0.952000000     0.263000000    -0.577000000
H    -0.429000000     1.073000000    -1.079000000
C    -2.262000000    -0.080000000    -0.957000000
H    -2.714000000     0.261000000    -1.884000000
C    -2.913000000    -1.173000000    -0.296000000
C    -4.246000000    -1.704000000    -0.753000000
O    -4.859000000    -1.197000000    -1.645000000
O    -4.740000000    -2.640000000    -0.093000000
