14
-85.07422
C    -1.973000000    -1.354000000    -0.018000000
H    -2.423000000    -2.256000000    -0.426000000
C    -0.778000000    -0.937000000    -0.545000000
H    -0.289000000    -1.450000000    -1.369000000
C    -0.269000000     0.276000000    -0.120000000
H     0.684000000     0.627000000    -0.563000000
C    -0.887000000     1.043000000     0.868000000
H    -0.498000000     2.011000000     1.174000000
C    -2.105000000     0.591000000     1.342000000
H    -2.810000000     1.191000000     1.912000000
C    -2.659000000    -0.702000000     0.970000000
C    -4.067000000    -1.220000000     1.412000000
O    -4.716000000    -0.508000000     2.136000000
O    -4.585000000    -2.176000000     0.882000000
