14
-88.64126
C    -2.530000000    -1.497000000    -0.207000000
H    -2.605000000    -2.497000000    -0.625000000
C    -1.294000000    -0.941000000     0.024000000
H    -0.370000000    -1.351000000    -0.374000000
C    -1.187000000     0.183000000     0.790000000
H    -0.230000000     0.707000000     1.030000000
C    -2.367000000     0.740000000     1.317000000
H    -2.299000000     1.639000000     1.924000000
C    -3.668000000     0.277000000     1.076000000
H    -4.500000000     0.711000000     1.625000000
C    -3.730000000    -0.925000000     0.359000000
C    -5.100000000    -1.532000000     0.100000000
O    -6.048000000    -1.114000000     0.791000000
O    -5.161000000    -2.557000000    -0.555000000
