14
-89.31651
C    -1.668000000     0.907000000    -0.444000000
H    -2.657000000     0.700000000    -0.844000000
C    -0.931000000    -0.158000000     0.023000000
H    -1.300000000    -1.177000000    -0.066000000
C     0.378000000     0.010000000     0.571000000
H     0.941000000    -0.854000000     1.000000000
C     0.851000000     1.333000000     0.718000000
H     1.821000000     1.584000000     1.140000000
C     0.067000000     2.413000000     0.310000000
H     0.424000000     3.412000000     0.551000000
C    -1.206000000     2.236000000    -0.215000000
C    -2.004000000     3.380000000    -0.743000000
O    -1.716000000     4.473000000    -0.274000000
O    -2.696000000     3.263000000    -1.728000000
