14
-89.16389
C    -1.967000000     1.898000000    -1.258000000
H    -2.672000000     1.916000000    -2.086000000
C    -1.437000000     0.670000000    -0.804000000
H    -1.797000000    -0.236000000    -1.284000000
C    -0.489000000     0.701000000     0.159000000
H     0.097000000    -0.257000000     0.462000000
C    -0.165000000     1.928000000     0.771000000
H     0.593000000     1.996000000     1.547000000
C    -0.784000000     3.113000000     0.401000000
H    -0.410000000     3.984000000     0.933000000
C    -1.742000000     3.069000000    -0.622000000
C    -2.354000000     4.319000000    -1.128000000
O    -2.391000000     5.355000000    -0.415000000
O    -2.859000000     4.333000000    -2.271000000
