14
-81.13171
C    -2.068000000    -1.539000000    -0.577000000
H    -2.849000000    -2.146000000    -1.027000000
C    -0.747000000    -1.580000000    -1.013000000
H    -0.393000000    -2.416000000    -1.612000000
C     0.254000000    -0.818000000    -0.451000000
H     1.286000000    -0.908000000    -0.526000000
C    -0.116000000     0.118000000     0.554000000
H     0.649000000     0.675000000     1.088000000
C    -1.404000000     0.290000000     0.902000000
H    -1.606000000     1.046000000     1.657000000
C    -2.455000000    -0.530000000     0.371000000
C    -3.918000000    -0.381000000     0.667000000
O    -4.421000000     0.677000000     1.048000000
O    -4.691000000    -1.262000000     0.363000000
