14
-86.27833
C    -3.121000000    -1.290000000     0.716000000
H    -3.582000000    -2.262000000     0.563000000
C    -1.773000000    -1.179000000     0.595000000
H    -1.164000000    -2.052000000     0.375000000
C    -1.194000000     0.082000000     0.808000000
H    -0.114000000     0.126000000     0.674000000
C    -1.974000000     1.224000000     1.161000000
H    -1.497000000     2.142000000     1.494000000
C    -3.328000000     1.067000000     1.395000000
H    -3.913000000     1.926000000     1.713000000
C    -3.964000000    -0.176000000     1.057000000
C    -5.450000000    -0.294000000     1.169000000
O    -6.284000000     0.500000000     1.710000000
O    -5.917000000    -1.306000000     0.638000000
