14
-83.97278
C    -2.168000000    -1.395000000    -0.088000000
H    -2.519000000    -2.409000000    -0.264000000
C    -0.897000000    -1.080000000    -0.499000000
H    -0.366000000    -1.691000000    -1.224000000
C    -0.349000000     0.096000000    -0.012000000
H     0.577000000     0.385000000    -0.437000000
C    -1.028000000     0.901000000     0.843000000
H    -0.620000000     1.878000000     1.086000000
C    -2.269000000     0.508000000     1.283000000
H    -2.826000000     1.109000000     1.997000000
C    -2.873000000    -0.629000000     0.822000000
C    -4.304000000    -1.063000000     1.339000000
O    -4.955000000    -0.276000000     1.976000000
O    -4.836000000    -2.092000000     0.974000000
