14
-84.11890
C    -1.366000000    -1.409000000     0.602000000
H    -1.515000000    -2.485000000     0.589000000
C    -0.199000000    -0.897000000     0.143000000
H     0.534000000    -1.557000000    -0.314000000
C     0.032000000     0.490000000     0.249000000
H     0.967000000     0.847000000    -0.217000000
C    -0.944000000     1.351000000     0.741000000
H    -0.734000000     2.411000000     0.860000000
C    -2.112000000     0.804000000     1.264000000
H    -2.798000000     1.481000000     1.767000000
C    -2.437000000    -0.599000000     1.044000000
C    -3.700000000    -1.267000000     1.439000000
O    -4.500000000    -0.524000000     1.983000000
O    -3.969000000    -2.431000000     1.283000000
