14
-86.46576
C    -3.149000000    -1.328000000    -0.523000000
H    -3.736000000    -1.957000000    -1.188000000
C    -1.884000000    -1.078000000    -1.053000000
H    -1.418000000    -1.575000000    -1.900000000
C    -1.062000000    -0.059000000    -0.518000000
H    -0.053000000     0.129000000    -0.875000000
C    -1.426000000     0.523000000     0.671000000
H    -0.763000000     1.197000000     1.207000000
C    -2.640000000     0.260000000     1.313000000
H    -2.864000000     0.719000000     2.272000000
C    -3.524000000    -0.675000000     0.700000000
C    -4.773000000    -1.010000000     1.381000000
O    -5.076000000    -0.505000000     2.491000000
O    -5.585000000    -1.667000000     0.725000000
