14
-77.62545
C    -3.105000000     0.196000000    -0.618000000
H    -3.877000000    -0.245000000    -1.244000000
C    -1.733000000     0.172000000    -0.868000000
H    -1.249000000    -0.186000000    -1.772000000
C    -0.809000000     0.802000000    -0.091000000
H     0.227000000     0.967000000    -0.470000000
C    -1.323000000     1.466000000     1.040000000
H    -0.558000000     1.904000000     1.675000000
C    -2.666000000     1.530000000     1.413000000
H    -3.066000000     2.043000000     2.284000000
C    -3.593000000     0.895000000     0.506000000
C    -5.078000000     1.025000000     0.744000000
O    -5.463000000     2.056000000     1.236000000
O    -5.857000000     0.395000000     0.056000000
