14
-82.01814
C    -2.138000000     2.218000000    -1.116000000
H    -2.543000000     2.225000000    -2.125000000
C    -1.753000000     1.014000000    -0.568000000
H    -2.118000000     0.110000000    -1.049000000
C    -1.100000000     1.095000000     0.570000000
H    -0.735000000     0.185000000     1.049000000
C    -0.773000000     2.297000000     1.198000000
H    -0.075000000     2.268000000     2.031000000
C    -1.188000000     3.490000000     0.661000000
H    -0.832000000     4.451000000     1.022000000
C    -1.915000000     3.474000000    -0.523000000
C    -2.338000000     4.751000000    -1.253000000
O    -2.255000000     5.820000000    -0.701000000
O    -2.771000000     4.730000000    -2.390000000
