14
-85.31530
C    -2.959000000    -1.408000000     0.906000000
H    -3.743000000    -2.158000000     0.959000000
C    -1.802000000    -1.645000000     0.180000000
H    -1.769000000    -2.514000000    -0.471000000
C    -0.763000000    -0.722000000     0.104000000
H     0.190000000    -0.956000000    -0.454000000
C    -0.946000000     0.522000000     0.723000000
H    -0.144000000     1.253000000     0.655000000
C    -2.152000000     0.817000000     1.422000000
H    -2.260000000     1.849000000     1.746000000
C    -3.164000000    -0.162000000     1.521000000
C    -4.472000000     0.112000000     2.138000000
O    -4.698000000     1.149000000     2.793000000
O    -5.403000000    -0.618000000     1.992000000
