14
-90.60078
C    -2.040000000     1.482000000    -1.675000000
H    -2.635000000     1.349000000    -2.574000000
C    -1.519000000     0.410000000    -0.892000000
H    -1.822000000    -0.599000000    -1.158000000
C    -0.631000000     0.586000000     0.176000000
H    -0.122000000    -0.305000000     0.628000000
C    -0.253000000     1.924000000     0.543000000
H     0.457000000     2.160000000     1.332000000
C    -0.808000000     2.992000000    -0.143000000
H    -0.525000000     3.995000000     0.164000000
C    -1.599000000     2.805000000    -1.350000000
C    -1.926000000     4.038000000    -2.243000000
O    -1.452000000     5.121000000    -1.920000000
O    -2.627000000     3.884000000    -3.232000000
