14
-82.74904
C    -2.201000000     1.189000000    -0.005000000
H    -2.908000000     1.906000000    -0.415000000
C    -0.911000000     1.284000000    -0.459000000
H    -0.615000000     2.004000000    -1.218000000
C     0.022000000     0.336000000    -0.095000000
H     0.986000000     0.326000000    -0.532000000
C    -0.329000000    -0.646000000     0.847000000
H     0.416000000    -1.325000000     1.253000000
C    -1.637000000    -0.694000000     1.340000000
H    -1.875000000    -1.394000000     2.137000000
C    -2.620000000     0.272000000     0.951000000
C    -4.024000000     0.306000000     1.442000000
O    -4.558000000    -0.657000000     1.894000000
O    -4.625000000     1.304000000     1.239000000
