14
-68.92295
C    -1.520000000     2.213000000     0.578000000
H    -1.956000000     3.146000000     0.230000000
C    -0.460000000     1.724000000    -0.194000000
H    -0.107000000     2.272000000    -1.064000000
C     0.036000000     0.469000000     0.040000000
H     0.762000000     0.056000000    -0.652000000
C    -0.310000000    -0.265000000     1.080000000
H     0.272000000    -1.164000000     1.266000000
C    -1.463000000     0.156000000     1.806000000
H    -1.851000000    -0.464000000     2.611000000
C    -2.058000000     1.421000000     1.602000000
C    -3.245000000     1.918000000     2.388000000
O    -3.923000000     1.209000000     3.116000000
O    -3.707000000     2.986000000     2.264000000
