14
-87.86157
C    -0.523000000     1.952000000    -1.793000000
H    -0.497000000     2.127000000    -2.866000000
C    -0.287000000     0.662000000    -1.285000000
H    -0.049000000    -0.113000000    -2.009000000
C    -0.190000000     0.470000000     0.059000000
H     0.023000000    -0.497000000     0.538000000
C    -0.584000000     1.478000000     0.960000000
H    -0.546000000     1.397000000     2.044000000
C    -0.965000000     2.690000000     0.425000000
H    -1.173000000     3.421000000     1.202000000
C    -0.902000000     2.963000000    -0.948000000
C    -1.315000000     4.367000000    -1.547000000
O    -1.717000000     5.312000000    -0.833000000
O    -1.243000000     4.449000000    -2.727000000
