14
-83.99744
C    -3.351000000     0.293000000    -1.108000000
H    -3.871000000    -0.143000000    -1.957000000
C    -2.252000000    -0.437000000    -0.507000000
H    -2.021000000    -1.464000000    -0.780000000
C    -1.508000000     0.184000000     0.440000000
H    -0.645000000    -0.211000000     0.963000000
C    -1.831000000     1.439000000     0.944000000
H    -1.249000000     1.980000000     1.686000000
C    -2.960000000     2.113000000     0.402000000
H    -3.219000000     3.086000000     0.812000000
C    -3.700000000     1.583000000    -0.642000000
C    -4.937000000     2.343000000    -1.037000000
O    -5.429000000     3.184000000    -0.347000000
O    -5.478000000     2.011000000    -2.065000000
