14
-87.08100
C    -0.611000000     0.638000000    -1.462000000
H    -0.582000000     0.446000000    -2.531000000
C    -0.337000000    -0.378000000    -0.512000000
H     0.010000000    -1.357000000    -0.832000000
C    -0.339000000    -0.063000000     0.822000000
H    -0.150000000    -0.879000000     1.518000000
C    -0.597000000     1.231000000     1.246000000
H    -0.677000000     1.377000000     2.321000000
C    -0.788000000     2.239000000     0.286000000
H    -1.037000000     3.244000000     0.615000000
C    -0.825000000     1.939000000    -1.080000000
C    -1.102000000     3.029000000    -2.117000000
O    -1.101000000     4.223000000    -1.756000000
O    -0.955000000     2.864000000    -3.343000000
