14
-84.28235
C    -3.213000000     1.058000000    -0.604000000
H    -3.800000000     1.876000000    -1.012000000
C    -1.824000000     1.135000000    -0.491000000
H    -1.292000000     2.057000000    -0.712000000
C    -1.043000000     0.050000000     0.005000000
H     0.045000000     0.137000000     0.222000000
C    -1.673000000    -1.082000000     0.509000000
H    -1.203000000    -1.921000000     1.017000000
C    -3.068000000    -1.234000000     0.271000000
H    -3.699000000    -2.037000000     0.642000000
C    -3.859000000    -0.156000000    -0.225000000
C    -5.348000000    -0.343000000    -0.507000000
O    -5.902000000    -1.331000000    -0.106000000
O    -5.981000000     0.504000000    -1.061000000
