14
-86.56708
C    -1.584000000     1.656000000    -0.055000000
H    -2.290000000     2.442000000    -0.310000000
C    -0.427000000     1.499000000    -0.816000000
H    -0.269000000     2.145000000    -1.675000000
C     0.427000000     0.507000000    -0.434000000
H     1.319000000     0.318000000    -1.094000000
C     0.082000000    -0.410000000     0.571000000
H     0.808000000    -1.185000000     0.805000000
C    -1.108000000    -0.263000000     1.310000000
H    -1.389000000    -1.072000000     1.980000000
C    -1.988000000     0.758000000     0.971000000
C    -3.335000000     0.923000000     1.602000000
O    -3.763000000     0.086000000     2.392000000
O    -4.089000000     1.813000000     1.296000000
