14
-77.18478
C    -2.663000000     0.304000000     0.157000000
H    -3.523000000     0.795000000    -0.293000000
C    -1.622000000    -0.056000000    -0.685000000
H    -1.699000000     0.202000000    -1.738000000
C    -0.394000000    -0.567000000    -0.178000000
H     0.541000000    -0.627000000    -0.774000000
C    -0.333000000    -0.819000000     1.152000000
H     0.586000000    -1.145000000     1.634000000
C    -1.442000000    -0.615000000     2.044000000
H    -1.340000000    -0.901000000     3.088000000
C    -2.609000000    -0.024000000     1.501000000
C    -3.818000000     0.141000000     2.424000000
O    -4.200000000    -0.766000000     3.088000000
O    -4.567000000     1.043000000     2.255000000
