14
-78.49145
C    -2.443000000     0.012000000    -0.761000000
H    -3.372000000     0.171000000    -1.302000000
C    -1.260000000     0.444000000    -1.306000000
H    -1.219000000     0.777000000    -2.340000000
C    -0.074000000     0.281000000    -0.591000000
H     0.818000000     0.547000000    -1.038000000
C    -0.126000000    -0.179000000     0.720000000
H     0.806000000    -0.448000000     1.210000000
C    -1.295000000    -0.565000000     1.294000000
H    -1.310000000    -1.019000000     2.282000000
C    -2.527000000    -0.358000000     0.580000000
C    -3.798000000    -0.636000000     1.221000000
O    -3.849000000    -0.743000000     2.402000000
O    -4.801000000    -0.729000000     0.583000000
