14
-85.25438
C    -3.634000000     1.579000000    -0.234000000
H    -4.473000000     2.267000000    -0.177000000
C    -2.348000000     2.062000000    -0.004000000
H    -2.113000000     3.110000000     0.166000000
C    -1.246000000     1.159000000     0.094000000
H    -0.227000000     1.608000000     0.265000000
C    -1.437000000    -0.213000000    -0.280000000
H    -0.565000000    -0.852000000    -0.394000000
C    -2.731000000    -0.721000000    -0.407000000
H    -2.926000000    -1.777000000    -0.577000000
C    -3.830000000     0.175000000    -0.382000000
C    -5.238000000    -0.282000000    -0.260000000
O    -5.470000000    -1.447000000    -0.031000000
O    -6.137000000     0.482000000    -0.504000000
