14
-88.72876
C    -1.831000000     0.438000000    -0.815000000
H    -2.321000000     0.889000000    -1.675000000
C    -0.428000000     0.357000000    -0.761000000
H     0.156000000     0.599000000    -1.646000000
C     0.238000000    -0.174000000     0.343000000
H     1.386000000    -0.244000000     0.465000000
C    -0.471000000    -0.570000000     1.458000000
H     0.033000000    -0.949000000     2.343000000
C    -1.855000000    -0.504000000     1.439000000
H    -2.428000000    -0.856000000     2.293000000
C    -2.552000000    -0.006000000     0.290000000
C    -4.075000000    -0.026000000     0.318000000
O    -4.675000000    -0.564000000     1.235000000
O    -4.685000000     0.635000000    -0.476000000
