14
-83.21272
C    -2.825000000     0.151000000    -0.322000000
H    -3.688000000     0.541000000    -0.855000000
C    -1.484000000     0.563000000    -0.596000000
H    -1.386000000     1.130000000    -1.519000000
C    -0.447000000     0.027000000     0.156000000
H     0.575000000     0.209000000    -0.156000000
C    -0.715000000    -0.737000000     1.284000000
H     0.148000000    -1.065000000     1.857000000
C    -2.048000000    -1.006000000     1.652000000
H    -2.278000000    -1.651000000     2.497000000
C    -3.102000000    -0.621000000     0.858000000
C    -4.521000000    -0.872000000     1.320000000
O    -4.830000000    -1.308000000     2.425000000
O    -5.422000000    -0.325000000     0.718000000
