14
-84.26850
C    -3.289000000    -0.016000000     0.058000000
H    -4.245000000     0.241000000    -0.393000000
C    -2.187000000     0.406000000    -0.630000000
H    -2.230000000     1.029000000    -1.519000000
C    -0.922000000     0.137000000    -0.119000000
H    -0.079000000     0.527000000    -0.588000000
C    -0.781000000    -0.495000000     1.136000000
H     0.222000000    -0.814000000     1.409000000
C    -1.952000000    -0.768000000     1.921000000
H    -1.766000000    -1.102000000     2.939000000
C    -3.235000000    -0.590000000     1.352000000
C    -4.473000000    -0.841000000     2.055000000
O    -4.536000000    -1.204000000     3.204000000
O    -5.484000000    -0.540000000     1.421000000
