14
-84.92307
C    -2.312000000    -0.037000000     0.521000000
H    -3.376000000    -0.243000000     0.607000000
C    -1.639000000    -0.658000000    -0.514000000
H    -2.102000000    -1.370000000    -1.192000000
C    -0.262000000    -0.453000000    -0.628000000
H     0.398000000    -0.833000000    -1.493000000
C     0.427000000     0.301000000     0.211000000
H     1.513000000     0.272000000     0.193000000
C    -0.216000000     0.973000000     1.271000000
H     0.228000000     1.667000000     1.980000000
C    -1.618000000     0.743000000     1.453000000
C    -2.458000000     1.524000000     2.473000000
O    -1.831000000     2.249000000     3.253000000
O    -3.657000000     1.321000000     2.649000000
