14
-81.49442
C    -3.218000000    -1.237000000    -0.089000000
H    -4.016000000    -1.518000000    -0.772000000
C    -1.859000000    -1.184000000    -0.499000000
H    -1.609000000    -1.398000000    -1.535000000
C    -0.804000000    -0.776000000     0.374000000
H     0.239000000    -0.729000000    -0.010000000
C    -1.146000000    -0.631000000     1.671000000
H    -0.361000000    -0.424000000     2.394000000
C    -2.432000000    -0.642000000     2.116000000
H    -2.514000000    -0.476000000     3.187000000
C    -3.518000000    -0.927000000     1.219000000
C    -4.912000000    -1.103000000     1.701000000
O    -5.201000000    -0.867000000     2.836000000
O    -5.780000000    -1.297000000     0.879000000
