14
-86.07332
C    -3.730000000    -0.009000000     0.791000000
H    -4.516000000    -0.698000000     1.090000000
C    -2.738000000    -0.387000000    -0.155000000
H    -2.759000000    -1.412000000    -0.515000000
C    -1.668000000     0.483000000    -0.366000000
H    -0.838000000     0.110000000    -1.054000000
C    -1.593000000     1.681000000     0.270000000
H    -0.654000000     2.229000000     0.271000000
C    -2.492000000     2.083000000     1.208000000
H    -2.258000000     3.020000000     1.706000000
C    -3.604000000     1.248000000     1.490000000
C    -4.667000000     1.685000000     2.446000000
O    -4.617000000     2.812000000     2.909000000
O    -5.552000000     0.895000000     2.841000000
