14
-87.95316
C    -2.258000000     0.472000000    -0.201000000
H    -3.155000000    -0.026000000    -0.560000000
C    -1.044000000    -0.239000000    -0.160000000
H    -0.945000000    -1.278000000    -0.464000000
C     0.121000000     0.420000000     0.270000000
H     1.077000000    -0.052000000     0.311000000
C    -0.019000000     1.699000000     0.773000000
H     0.911000000     2.125000000     1.142000000
C    -1.254000000     2.440000000     0.735000000
H    -1.242000000     3.480000000     1.050000000
C    -2.429000000     1.851000000     0.248000000
C    -3.741000000     2.589000000     0.221000000
O    -3.854000000     3.575000000     0.963000000
O    -4.710000000     2.152000000    -0.347000000
