14
-85.43154
C    -1.924000000    -0.057000000     0.712000000
H    -2.769000000    -0.701000000     0.481000000
C    -0.811000000    -0.244000000    -0.106000000
H    -0.717000000    -1.031000000    -0.849000000
C     0.326000000     0.505000000     0.117000000
H     1.211000000     0.247000000    -0.414000000
C     0.280000000     1.530000000     1.038000000
H     1.172000000     2.106000000     1.271000000
C    -0.942000000     1.824000000     1.729000000
H    -1.072000000     2.661000000     2.410000000
C    -2.016000000     0.950000000     1.617000000
C    -3.297000000     1.168000000     2.369000000
O    -3.422000000     1.932000000     3.307000000
O    -4.343000000     0.783000000     1.823000000
