14
-92.32523
C    -1.265000000     1.782000000    -0.736000000
H    -1.434000000     2.310000000    -1.671000000
C    -0.417000000     0.690000000    -0.704000000
H     0.164000000     0.450000000    -1.591000000
C    -0.199000000    -0.012000000     0.453000000
H     0.526000000    -0.825000000     0.381000000
C    -0.758000000     0.376000000     1.661000000
H    -0.503000000    -0.212000000     2.539000000
C    -1.650000000     1.471000000     1.650000000
H    -2.046000000     1.842000000     2.592000000
C    -1.930000000     2.190000000     0.459000000
C    -2.996000000     3.281000000     0.491000000
O    -3.213000000     3.838000000     1.573000000
O    -3.770000000     3.451000000    -0.462000000
