14
-91.50451
C    -0.580000000     1.458000000    -3.269000000
H    -0.293000000     1.457000000    -4.317000000
C     0.020000000     0.553000000    -2.369000000
H     0.674000000    -0.261000000    -2.672000000
C    -0.320000000     0.581000000    -1.031000000
H    -0.025000000    -0.220000000    -0.354000000
C    -1.181000000     1.575000000    -0.590000000
H    -1.525000000     1.606000000     0.441000000
C    -1.634000000     2.558000000    -1.474000000
H    -2.368000000     3.289000000    -1.144000000
C    -1.392000000     2.522000000    -2.838000000
C    -1.847000000     3.637000000    -3.820000000
O    -2.763000000     4.386000000    -3.533000000
O    -1.131000000     3.858000000    -4.801000000
