14
-85.25051
C    -0.630000000     1.130000000    -0.376000000
H    -1.243000000     1.740000000    -1.034000000
C     0.156000000     0.120000000    -0.815000000
H     0.244000000    -0.166000000    -1.860000000
C     0.890000000    -0.634000000     0.131000000
H     1.652000000    -1.353000000    -0.240000000
C     0.648000000    -0.501000000     1.474000000
H     1.237000000    -1.241000000     2.008000000
C    -0.144000000     0.485000000     1.929000000
H    -0.242000000     0.641000000     3.000000000
C    -0.836000000     1.274000000     1.031000000
C    -1.745000000     2.323000000     1.535000000
O    -1.598000000     2.600000000     2.715000000
O    -2.580000000     2.825000000     0.820000000
