14
-84.20255
C    -1.095000000     1.221000000    -0.604000000
H    -1.501000000     1.764000000    -1.453000000
C     0.012000000     0.410000000    -0.799000000
H     0.386000000     0.233000000    -1.804000000
C     0.509000000    -0.478000000     0.132000000
H     1.343000000    -1.238000000    -0.025000000
C     0.002000000    -0.440000000     1.397000000
H     0.559000000    -1.091000000     2.066000000
C    -1.039000000     0.464000000     1.684000000
H    -1.494000000     0.528000000     2.669000000
C    -1.587000000     1.276000000     0.679000000
C    -2.811000000     2.098000000     0.983000000
O    -3.230000000     2.227000000     2.132000000
O    -3.372000000     2.765000000     0.110000000
