14
-83.32214
C    -1.186000000     1.938000000     1.600000000
H    -1.542000000     2.873000000     1.174000000
C    -0.572000000     1.022000000     0.680000000
H    -0.549000000     1.315000000    -0.367000000
C     0.004000000    -0.102000000     1.197000000
H     0.490000000    -0.801000000     0.647000000
C     0.061000000    -0.291000000     2.539000000
H     0.544000000    -1.198000000     2.896000000
C    -0.491000000     0.577000000     3.423000000
H    -0.552000000     0.397000000     4.493000000
C    -1.110000000     1.694000000     2.939000000
C    -1.927000000     2.627000000     3.858000000
O    -1.906000000     2.426000000     5.056000000
O    -2.513000000     3.563000000     3.392000000
