14
-85.64206
C    -1.289000000     2.677000000     1.188000000
H    -1.522000000     3.639000000     0.739000000
C    -0.435000000     1.770000000     0.575000000
H     0.005000000     2.119000000    -0.356000000
C    -0.105000000     0.561000000     1.210000000
H     0.531000000    -0.208000000     0.815000000
C    -0.793000000     0.187000000     2.364000000
H    -0.554000000    -0.715000000     2.923000000
C    -1.767000000     1.027000000     2.881000000
H    -2.409000000     0.631000000     3.664000000
C    -1.964000000     2.300000000     2.375000000
C    -3.046000000     3.191000000     2.923000000
O    -3.712000000     2.890000000     3.854000000
O    -3.385000000     4.247000000     2.309000000
