14
-84.82090
C    -1.764000000     0.428000000     0.547000000
H    -2.542000000     0.920000000    -0.032000000
C    -0.690000000    -0.115000000    -0.124000000
H    -0.533000000    -0.066000000    -1.199000000
C     0.231000000    -0.880000000     0.569000000
H     1.201000000    -1.193000000     0.072000000
C     0.267000000    -0.793000000     1.940000000
H     1.140000000    -1.177000000     2.462000000
C    -0.775000000    -0.194000000     2.620000000
H    -0.915000000    -0.300000000     3.692000000
C    -1.814000000     0.382000000     1.953000000
C    -2.910000000     1.096000000     2.807000000
O    -2.943000000     1.025000000     4.041000000
O    -3.848000000     1.529000000     2.172000000
