14
-80.30014
C    -2.012000000     1.298000000     0.491000000
H    -2.888000000     1.928000000     0.358000000
C    -1.110000000     1.090000000    -0.550000000
H    -1.357000000     1.470000000    -1.538000000
C     0.031000000     0.358000000    -0.333000000
H     0.698000000     0.041000000    -1.202000000
C     0.304000000    -0.194000000     0.876000000
H     1.177000000    -0.823000000     1.032000000
C    -0.610000000     0.006000000     1.907000000
H    -0.318000000    -0.550000000     2.794000000
C    -1.752000000     0.752000000     1.748000000
C    -2.655000000     0.898000000     2.961000000
O    -2.366000000     0.395000000     4.024000000
O    -3.466000000     1.806000000     3.035000000
