14
-88.76350
C    -1.029000000     2.404000000     0.133000000
H    -1.605000000     3.282000000    -0.148000000
C    -1.127000000     1.214000000    -0.542000000
H    -1.906000000     1.115000000    -1.295000000
C    -0.473000000     0.046000000    -0.110000000
H    -0.568000000    -0.952000000    -0.636000000
C     0.305000000     0.139000000     1.022000000
H     0.904000000    -0.711000000     1.339000000
C     0.349000000     1.298000000     1.782000000
H     0.948000000     1.344000000     2.688000000
C    -0.323000000     2.489000000     1.342000000
C    -0.191000000     3.808000000     2.110000000
O     0.489000000     3.921000000     3.105000000
O    -0.972000000     4.716000000     1.812000000
