14
-81.66031
C    -1.860000000     1.266000000     0.761000000
H    -2.764000000     1.660000000     0.304000000
C    -0.794000000     0.835000000    -0.040000000
H    -0.857000000     0.951000000    -1.119000000
C     0.310000000     0.230000000     0.530000000
H     1.129000000    -0.087000000    -0.072000000
C     0.352000000    -0.005000000     1.862000000
H     1.197000000    -0.518000000     2.314000000
C    -0.696000000     0.413000000     2.618000000
H    -0.550000000     0.351000000     3.693000000
C    -1.860000000     1.046000000     2.134000000
C    -2.979000000     1.526000000     3.033000000
O    -3.006000000     1.287000000     4.191000000
O    -3.963000000     2.098000000     2.580000000
