14
-86.91148
C    -0.997000000     2.027000000     0.243000000
H    -1.544000000     2.926000000    -0.031000000
C    -1.002000000     0.929000000    -0.585000000
H    -1.538000000     0.832000000    -1.526000000
C    -0.233000000    -0.161000000    -0.207000000
H    -0.122000000    -1.006000000    -0.895000000
C     0.474000000    -0.192000000     0.995000000
H     1.041000000    -1.035000000     1.381000000
C     0.369000000     0.890000000     1.859000000
H     0.990000000     0.813000000     2.748000000
C    -0.364000000     2.053000000     1.498000000
C    -0.484000000     3.238000000     2.393000000
O    -0.369000000     3.239000000     3.630000000
O    -0.865000000     4.283000000     1.896000000
