14
-86.15629
C    -1.615000000     1.650000000     0.645000000
H    -2.377000000     2.300000000     0.222000000
C    -0.907000000     0.681000000    -0.129000000
H    -0.895000000     0.768000000    -1.212000000
C     0.035000000    -0.159000000     0.449000000
H     0.770000000    -0.694000000    -0.081000000
C     0.227000000    -0.079000000     1.891000000
H     1.050000000    -0.566000000     2.408000000
C    -0.514000000     0.809000000     2.665000000
H    -0.278000000     0.889000000     3.723000000
C    -1.476000000     1.632000000     2.046000000
C    -2.078000000     2.652000000     2.967000000
O    -1.632000000     2.760000000     4.132000000
O    -2.739000000     3.538000000     2.449000000
