14
-82.65068
C    -2.137000000     1.780000000     1.726000000
H    -2.987000000     2.454000000     1.653000000
C    -1.689000000     1.315000000     0.561000000
H    -2.159000000     1.565000000    -0.386000000
C    -0.515000000     0.652000000     0.476000000
H    -0.136000000     0.213000000    -0.392000000
C     0.179000000     0.392000000     1.660000000
H     1.109000000    -0.140000000     1.482000000
C    -0.322000000     0.756000000     2.904000000
H     0.257000000     0.538000000     3.798000000
C    -1.424000000     1.626000000     2.932000000
C    -1.940000000     2.261000000     4.201000000
O    -1.223000000     2.546000000     5.163000000
O    -3.119000000     2.606000000     4.231000000
