14
-77.15664
C    -2.069000000     0.887000000     2.967000000
H    -3.020000000     1.104000000     3.445000000
C    -2.129000000     0.292000000     1.746000000
H    -3.020000000    -0.093000000     1.257000000
C    -0.910000000     0.125000000     1.006000000
H    -0.925000000    -0.417000000     0.031000000
C     0.325000000     0.519000000     1.555000000
H     1.243000000     0.300000000     1.016000000
C     0.317000000     1.096000000     2.890000000
H     1.252000000     1.403000000     3.352000000
C    -0.869000000     1.283000000     3.619000000
C    -0.842000000     2.052000000     4.939000000
O     0.156000000     2.502000000     5.495000000
O    -1.841000000     2.210000000     5.516000000
