14
-77.08406
C    -1.418000000     0.414000000     2.484000000
H    -2.272000000     0.260000000     3.138000000
C    -1.366000000    -0.061000000     1.221000000
H    -2.120000000    -0.729000000     0.811000000
C    -0.235000000     0.216000000     0.474000000
H    -0.204000000    -0.292000000    -0.547000000
C     0.773000000     1.111000000     0.917000000
H     1.601000000     1.400000000     0.275000000
C     0.697000000     1.529000000     2.230000000
H     1.512000000     2.126000000     2.630000000
C    -0.380000000     1.251000000     3.093000000
C    -0.455000000     1.937000000     4.400000000
O     0.315000000     2.750000000     4.774000000
O    -1.266000000     1.511000000     5.192000000
