14
-81.95102
C    -0.756000000     0.453000000     2.585000000
H    -1.628000000     0.113000000     3.138000000
C    -0.441000000    -0.050000000     1.279000000
H    -0.980000000    -0.913000000     0.898000000
C     0.684000000     0.524000000     0.597000000
H     0.977000000     0.020000000    -0.336000000
C     1.433000000     1.544000000     1.121000000
H     2.351000000     1.838000000     0.618000000
C     1.178000000     1.962000000     2.434000000
H     1.959000000     2.564000000     2.892000000
C     0.123000000     1.345000000     3.206000000
C    -0.032000000     1.740000000     4.669000000
O     0.711000000     2.622000000     5.073000000
O    -0.960000000     1.389000000     5.307000000
