14
-81.40932
C    -0.958000000     0.692000000     2.537000000
H    -1.862000000     0.705000000     3.141000000
C    -1.071000000     0.175000000     1.237000000
H    -2.026000000    -0.306000000     1.045000000
C     0.088000000     0.141000000     0.390000000
H    -0.062000000    -0.354000000    -0.514000000
C     1.211000000     0.829000000     0.751000000
H     2.048000000     0.932000000     0.065000000
C     1.291000000     1.251000000     2.038000000
H     2.210000000     1.789000000     2.256000000
C     0.266000000     1.268000000     2.954000000
C     0.452000000     1.790000000     4.367000000
O     1.277000000     2.632000000     4.594000000
O    -0.313000000     1.479000000     5.259000000
