14
-80.56497
C    -2.055000000     1.810000000     2.205000000
H    -2.963000000     2.307000000     2.536000000
C    -2.022000000     0.706000000     1.362000000
H    -2.936000000     0.225000000     1.024000000
C    -0.804000000     0.245000000     0.891000000
H    -0.657000000    -0.569000000     0.183000000
C     0.389000000     0.803000000     1.360000000
H     1.339000000     0.388000000     1.034000000
C     0.396000000     1.932000000     2.104000000
H     1.325000000     2.483000000     2.229000000
C    -0.845000000     2.391000000     2.646000000
C    -0.824000000     3.673000000     3.520000000
O     0.219000000     4.182000000     3.761000000
O    -1.826000000     4.228000000     3.803000000
