14
-85.07621
C    -0.632000000     1.797000000     1.820000000
H    -1.501000000     2.241000000     2.297000000
C    -0.842000000     0.936000000     0.755000000
H    -1.845000000     0.576000000     0.541000000
C     0.211000000     0.567000000    -0.169000000
H     0.037000000    -0.074000000    -0.936000000
C     1.471000000     1.086000000     0.067000000
H     2.338000000     0.734000000    -0.486000000
C     1.676000000     1.945000000     1.162000000
H     2.718000000     2.245000000     1.242000000
C     0.651000000     2.363000000     2.005000000
C     0.857000000     3.319000000     3.175000000
O     1.952000000     3.488000000     3.580000000
O    -0.108000000     3.921000000     3.597000000
