14
-89.15376
C    -1.159000000     1.267000000     1.520000000
H    -2.148000000     1.683000000     1.693000000
C    -1.011000000     0.416000000     0.438000000
H    -1.906000000     0.271000000    -0.162000000
C     0.205000000    -0.116000000     0.038000000
H     0.261000000    -0.816000000    -0.834000000
C     1.316000000     0.400000000     0.669000000
H     2.234000000     0.065000000     0.193000000
C     1.224000000     1.319000000     1.728000000
H     2.151000000     1.741000000     2.109000000
C    -0.021000000     1.752000000     2.174000000
C    -0.042000000     2.924000000     3.161000000
O     1.024000000     3.432000000     3.437000000
O    -1.114000000     3.324000000     3.555000000
