14
-91.00280
C    -1.050000000     1.898000000     1.538000000
H    -1.944000000     2.165000000     2.096000000
C    -1.202000000     1.135000000     0.367000000
H    -2.219000000     0.980000000     0.014000000
C    -0.070000000     0.552000000    -0.138000000
H    -0.089000000    -0.113000000    -0.992000000
C     1.192000000     0.804000000     0.363000000
H     2.084000000     0.362000000    -0.071000000
C     1.349000000     1.708000000     1.418000000
H     2.373000000     1.786000000     1.774000000
C     0.232000000     2.236000000     2.051000000
C     0.369000000     3.191000000     3.218000000
O     1.494000000     3.458000000     3.625000000
O    -0.633000000     3.566000000     3.804000000
