14
-85.99079
C    -0.723000000     0.639000000    -1.727000000
H    -0.629000000     0.371000000    -2.776000000
C    -0.107000000    -0.313000000    -0.919000000
H     0.331000000    -1.236000000    -1.289000000
C    -0.207000000    -0.117000000     0.432000000
H     0.270000000    -0.873000000     1.068000000
C    -0.835000000     1.046000000     0.929000000
H    -0.793000000     1.331000000     1.977000000
C    -1.409000000     1.975000000     0.138000000
H    -1.896000000     2.835000000     0.591000000
C    -1.392000000     1.805000000    -1.253000000
C    -1.854000000     2.752000000    -2.285000000
O    -2.322000000     3.811000000    -1.882000000
O    -1.781000000     2.412000000    -3.437000000
