14
-86.19472
C    -0.098000000     1.546000000     1.570000000
H    -0.953000000     1.588000000     2.240000000
C     0.214000000     0.434000000     0.754000000
H    -0.438000000    -0.433000000     0.818000000
C     1.371000000     0.404000000    -0.023000000
H     1.434000000    -0.530000000    -0.547000000
C     2.190000000     1.548000000    -0.039000000
H     3.059000000     1.538000000    -0.692000000
C     1.891000000     2.589000000     0.758000000
H     2.700000000     3.315000000     0.801000000
C     0.778000000     2.612000000     1.588000000
C     0.482000000     3.774000000     2.527000000
O     1.212000000     4.734000000     2.414000000
O    -0.428000000     3.808000000     3.379000000
