14
-85.77649
C    -1.000000000     0.780000000    -1.714000000
H    -1.041000000     0.579000000    -2.781000000
C    -0.397000000    -0.121000000    -0.840000000
H     0.106000000    -0.960000000    -1.313000000
C    -0.286000000     0.166000000     0.532000000
H     0.401000000    -0.456000000     1.178000000
C    -0.679000000     1.378000000     0.999000000
H    -0.577000000     1.667000000     2.042000000
C    -1.297000000     2.271000000     0.125000000
H    -1.505000000     3.297000000     0.416000000
C    -1.427000000     2.009000000    -1.216000000
C    -1.928000000     3.101000000    -2.079000000
O    -2.664000000     4.020000000    -1.695000000
O    -1.636000000     3.034000000    -3.251000000
