14
-83.01294
C    -1.450000000     1.895000000     2.154000000
H    -2.443000000     2.123000000     2.531000000
C    -1.349000000     0.977000000     1.088000000
H    -2.194000000     0.440000000     0.665000000
C    -0.100000000     0.548000000     0.695000000
H     0.016000000    -0.280000000     0.012000000
C     0.992000000     1.060000000     1.397000000
H     1.938000000     0.662000000     1.037000000
C     0.912000000     1.976000000     2.404000000
H     1.813000000     2.222000000     2.961000000
C    -0.295000000     2.544000000     2.745000000
C    -0.515000000     3.517000000     3.832000000
O     0.442000000     3.967000000     4.425000000
O    -1.631000000     4.015000000     4.107000000
