14
-87.69630
C    -1.305000000     3.717000000     1.486000000
H    -1.851000000     4.557000000     1.064000000
C    -1.595000000     2.446000000     1.038000000
H    -2.236000000     2.312000000     0.170000000
C    -0.938000000     1.347000000     1.528000000
H    -1.119000000     0.328000000     1.160000000
C     0.013000000     1.499000000     2.500000000
H     0.520000000     0.631000000     2.915000000
C     0.247000000     2.764000000     3.038000000
H     1.026000000     2.953000000     3.772000000
C    -0.468000000     3.863000000     2.551000000
C    -0.137000000     5.241000000     3.058000000
O     0.703000000     5.286000000     3.927000000
O    -0.758000000     6.180000000     2.682000000
