14
-84.22274
C    -1.489000000     1.122000000     0.800000000
H    -2.445000000     0.938000000     1.284000000
C    -0.885000000     0.041000000     0.101000000
H    -1.245000000    -0.984000000     0.132000000
C     0.376000000     0.220000000    -0.484000000
H     0.941000000    -0.573000000    -0.770000000
C     1.041000000     1.427000000    -0.293000000
H     2.048000000     1.600000000    -0.663000000
C     0.424000000     2.512000000     0.318000000
H     0.976000000     3.439000000     0.451000000
C    -0.861000000     2.316000000     0.907000000
C    -1.479000000     3.424000000     1.695000000
O    -1.014000000     4.538000000     1.721000000
O    -2.529000000     3.245000000     2.305000000
