14
-84.52327
C    -1.123000000     2.102000000     1.098000000
H    -1.918000000     2.804000000     1.335000000
C    -1.256000000     1.198000000     0.056000000
H    -2.142000000     1.123000000    -0.569000000
C    -0.229000000     0.214000000    -0.033000000
H    -0.342000000    -0.442000000    -0.909000000
C     0.928000000     0.287000000     0.754000000
H     1.646000000    -0.487000000     0.496000000
C     1.064000000     1.287000000     1.704000000
H     1.991000000     1.469000000     2.242000000
C     0.057000000     2.188000000     1.934000000
C     0.233000000     3.225000000     2.951000000
O     1.246000000     3.260000000     3.651000000
O    -0.538000000     4.137000000     2.879000000
