14
-79.47780
C    -0.742000000     2.125000000     2.167000000
H    -1.355000000     2.746000000     2.814000000
C    -1.249000000     1.186000000     1.207000000
H    -2.325000000     1.123000000     1.070000000
C    -0.411000000     0.241000000     0.538000000
H    -0.834000000    -0.582000000    -0.091000000
C     0.984000000     0.339000000     0.743000000
H     1.709000000    -0.349000000     0.315000000
C     1.510000000     1.266000000     1.668000000
H     2.578000000     1.200000000     1.858000000
C     0.650000000     2.104000000     2.420000000
C     1.221000000     3.250000000     3.226000000
O     2.384000000     3.443000000     3.193000000
O     0.553000000     3.960000000     3.934000000
