14
-91.39566
C    -0.947000000     1.915000000     1.260000000
H    -1.846000000     2.444000000     1.566000000
C    -1.008000000     0.738000000     0.565000000
H    -2.007000000     0.346000000     0.395000000
C     0.110000000     0.038000000     0.226000000
H     0.071000000    -0.912000000    -0.276000000
C     1.339000000     0.624000000     0.489000000
H     2.282000000     0.141000000     0.245000000
C     1.423000000     1.795000000     1.223000000
H     2.396000000     2.100000000     1.601000000
C     0.276000000     2.460000000     1.672000000
C     0.277000000     3.604000000     2.663000000
O     1.356000000     4.060000000     3.028000000
O    -0.779000000     3.947000000     3.243000000
