14
-88.28199
C    -0.143000000     1.011000000    -2.195000000
H     0.213000000     1.013000000    -3.222000000
C     0.285000000     0.045000000    -1.309000000
H     0.869000000    -0.816000000    -1.626000000
C    -0.038000000     0.152000000     0.039000000
H     0.421000000    -0.506000000     0.678000000
C    -0.836000000     1.179000000     0.490000000
H    -1.089000000     1.261000000     1.544000000
C    -1.273000000     2.120000000    -0.432000000
H    -1.946000000     2.908000000    -0.104000000
C    -0.916000000     2.072000000    -1.763000000
C    -1.225000000     3.158000000    -2.697000000
O    -1.660000000     4.215000000    -2.271000000
O    -1.001000000     3.010000000    -3.872000000
