14
-89.57832
C    -0.940000000     1.259000000     0.658000000
H    -1.979000000     1.540000000     0.808000000
C    -0.599000000     0.029000000     0.099000000
H    -1.366000000    -0.629000000    -0.303000000
C     0.739000000    -0.303000000    -0.001000000
H     0.964000000    -1.295000000    -0.354000000
C     1.768000000     0.569000000     0.466000000
H     2.809000000     0.263000000     0.396000000
C     1.352000000     1.846000000     0.947000000
H     2.116000000     2.576000000     1.204000000
C     0.040000000     2.227000000     1.071000000
C    -0.389000000     3.577000000     1.640000000
O     0.497000000     4.339000000     2.082000000
O    -1.522000000     4.049000000     1.573000000
