14
-90.88993
C    -1.577000000     0.958000000     0.345000000
H    -2.663000000     0.956000000     0.304000000
C    -0.927000000    -0.197000000    -0.100000000
H    -1.435000000    -1.073000000    -0.495000000
C     0.433000000    -0.260000000    -0.091000000
H     0.916000000    -1.148000000    -0.379000000
C     1.214000000     0.834000000     0.396000000
H     2.300000000     0.841000000     0.440000000
C     0.579000000     1.966000000     0.804000000
H     1.096000000     2.846000000     1.178000000
C    -0.831000000     2.042000000     0.828000000
C    -1.525000000     3.356000000     1.213000000
O    -0.884000000     4.399000000     1.362000000
O    -2.710000000     3.351000000     1.457000000
