14
-81.73889
C    -1.617000000     1.360000000     0.427000000
H    -2.702000000     1.408000000     0.389000000
C    -0.900000000     0.286000000    -0.057000000
H    -1.385000000    -0.579000000    -0.501000000
C     0.471000000     0.431000000    -0.112000000
H     1.014000000    -0.408000000    -0.499000000
C     1.086000000     1.572000000     0.212000000
H     2.173000000     1.584000000     0.178000000
C     0.361000000     2.693000000     0.647000000
H     0.870000000     3.616000000     0.912000000
C    -0.980000000     2.557000000     0.871000000
C    -1.825000000     3.748000000     1.320000000
O    -1.218000000     4.818000000     1.584000000
O    -2.975000000     3.703000000     1.415000000
