14
-88.52032
C    -1.530000000     1.535000000     0.338000000
H    -2.540000000     1.934000000     0.293000000
C    -1.207000000     0.266000000    -0.065000000
H    -1.993000000    -0.357000000    -0.483000000
C     0.080000000    -0.259000000    -0.008000000
H     0.374000000    -1.299000000    -0.233000000
C     1.090000000     0.589000000     0.381000000
H     2.108000000     0.206000000     0.380000000
C     0.779000000     1.967000000     0.610000000
H     1.610000000     2.633000000     0.829000000
C    -0.534000000     2.441000000     0.654000000
C    -0.746000000     3.896000000     0.944000000
O     0.182000000     4.632000000     1.270000000
O    -1.837000000     4.389000000     0.744000000
