14
-85.41093
C    -0.714000000     1.648000000    -0.482000000
H    -1.402000000     2.311000000    -1.001000000
C    -0.669000000     0.285000000    -0.523000000
H    -1.538000000    -0.235000000    -0.919000000
C     0.358000000    -0.426000000     0.101000000
H     0.496000000    -1.453000000     0.011000000
C     1.342000000     0.325000000     0.786000000
H     2.106000000    -0.244000000     1.308000000
C     1.413000000     1.715000000     0.641000000
H     2.288000000     2.225000000     1.035000000
C     0.370000000     2.356000000     0.038000000
C     0.369000000     3.887000000     0.110000000
O     1.207000000     4.334000000     0.896000000
O    -0.542000000     4.539000000    -0.304000000
