14
-81.62733
C    -2.069000000     2.263000000     0.680000000
H    -3.082000000     2.452000000     1.027000000
C    -1.711000000     0.953000000     0.344000000
H    -2.448000000     0.157000000     0.287000000
C    -0.398000000     0.675000000    -0.052000000
H    -0.208000000    -0.315000000    -0.313000000
C     0.604000000     1.596000000    -0.104000000
H     1.629000000     1.427000000    -0.423000000
C     0.257000000     2.906000000     0.324000000
H     1.000000000     3.697000000     0.266000000
C    -1.065000000     3.273000000     0.638000000
C    -1.530000000     4.707000000     1.042000000
O    -0.735000000     5.624000000     1.207000000
O    -2.600000000     4.827000000     1.543000000
