14
-84.87063
C    -1.740000000     2.468000000    -0.460000000
H    -2.800000000     2.593000000    -0.666000000
C    -1.126000000     1.207000000    -0.191000000
H    -1.715000000     0.294000000    -0.217000000
C     0.236000000     1.019000000    -0.010000000
H     0.608000000    -0.043000000     0.126000000
C     1.087000000     2.147000000    -0.084000000
H     2.147000000     2.081000000     0.147000000
C     0.484000000     3.370000000    -0.357000000
H     1.143000000     4.230000000    -0.271000000
C    -0.919000000     3.538000000    -0.516000000
C    -1.553000000     4.895000000    -0.657000000
O    -0.811000000     5.855000000    -0.688000000
O    -2.750000000     5.108000000    -0.548000000
