14
-84.73847
C    -1.208000000     1.982000000    -1.239000000
H    -1.947000000     2.709000000    -1.567000000
C    -1.485000000     0.625000000    -1.163000000
H    -2.390000000     0.208000000    -1.596000000
C    -0.546000000    -0.187000000    -0.601000000
H    -0.730000000    -1.301000000    -0.567000000
C     0.597000000     0.362000000    -0.056000000
H     1.254000000    -0.268000000     0.539000000
C     0.770000000     1.720000000     0.010000000
H     1.570000000     2.156000000     0.603000000
C    -0.096000000     2.526000000    -0.650000000
C     0.107000000     4.000000000    -0.478000000
O     1.220000000     4.456000000    -0.275000000
O    -0.834000000     4.747000000    -0.611000000
