14
-76.62654
C    -0.936000000     1.973000000    -0.828000000
H    -1.772000000     2.603000000    -1.122000000
C    -1.103000000     0.576000000    -0.801000000
H    -2.092000000     0.207000000    -1.059000000
C    -0.152000000    -0.290000000    -0.273000000
H    -0.416000000    -1.367000000    -0.364000000
C     1.063000000     0.195000000     0.078000000
H     1.738000000    -0.471000000     0.609000000
C     1.308000000     1.590000000     0.092000000
H     2.238000000     1.948000000     0.525000000
C     0.262000000     2.477000000    -0.296000000
C     0.494000000     3.961000000    -0.167000000
O     1.501000000     4.508000000     0.227000000
O    -0.355000000     4.793000000    -0.455000000
