14
-89.74897
C    -1.685000000     2.220000000     0.741000000
H    -2.635000000     2.605000000     0.378000000
C    -1.207000000     0.951000000     0.334000000
H    -1.848000000     0.302000000    -0.257000000
C     0.091000000     0.568000000     0.653000000
H     0.407000000    -0.436000000     0.437000000
C     0.898000000     1.388000000     1.455000000
H     1.880000000     1.074000000     1.800000000
C     0.398000000     2.648000000     1.791000000
H     1.004000000     3.412000000     2.272000000
C    -0.843000000     3.135000000     1.373000000
C    -1.363000000     4.527000000     1.679000000
O    -0.736000000     5.202000000     2.454000000
O    -2.513000000     4.901000000     1.333000000
