14
-90.11748
C    -1.515000000     1.108000000     0.145000000
H    -2.405000000     1.222000000    -0.468000000
C    -0.685000000     0.022000000    -0.125000000
H    -0.893000000    -0.738000000    -0.874000000
C     0.489000000    -0.183000000     0.615000000
H     1.015000000    -1.142000000     0.466000000
C     0.804000000     0.719000000     1.639000000
H     1.734000000     0.598000000     2.188000000
C    -0.033000000     1.857000000     1.840000000
H     0.224000000     2.518000000     2.664000000
C    -1.199000000     2.082000000     1.048000000
C    -2.022000000     3.347000000     1.200000000
O    -1.771000000     4.134000000     2.086000000
O    -2.973000000     3.556000000     0.459000000
