14
-92.21651
C    -0.883000000     2.581000000    -0.938000000
H    -1.509000000     3.417000000    -1.241000000
C    -1.303000000     1.305000000    -1.049000000
H    -2.277000000     1.091000000    -1.483000000
C    -0.495000000     0.283000000    -0.597000000
H    -0.909000000    -0.755000000    -0.639000000
C     0.793000000     0.526000000    -0.072000000
H     1.441000000    -0.266000000     0.295000000
C     1.263000000     1.840000000    -0.018000000
H     2.262000000     2.047000000     0.357000000
C     0.421000000     2.879000000    -0.508000000
C     0.894000000     4.315000000    -0.358000000
O     1.891000000     4.461000000     0.370000000
O     0.418000000     5.230000000    -0.988000000
