14
-89.90583
C    -1.469000000     1.653000000    -0.677000000
H    -2.291000000     2.091000000    -1.237000000
C    -1.280000000     0.285000000    -0.844000000
H    -1.914000000    -0.321000000    -1.485000000
C    -0.309000000    -0.401000000    -0.172000000
H    -0.180000000    -1.466000000    -0.323000000
C     0.511000000     0.364000000     0.698000000
H     1.301000000    -0.182000000     1.207000000
C     0.408000000     1.760000000     0.798000000
H     1.063000000     2.380000000     1.405000000
C    -0.668000000     2.398000000     0.139000000
C    -0.829000000     3.898000000     0.189000000
O    -0.126000000     4.598000000     0.904000000
O    -1.685000000     4.441000000    -0.482000000
