14
-85.58651
C    -1.736000000     2.683000000     0.045000000
H    -2.403000000     3.417000000    -0.400000000
C    -1.626000000     1.422000000    -0.562000000
H    -2.165000000     1.263000000    -1.493000000
C    -0.761000000     0.418000000    -0.025000000
H    -0.703000000    -0.578000000    -0.484000000
C    -0.045000000     0.750000000     1.087000000
H     0.587000000    -0.042000000     1.480000000
C    -0.153000000     1.973000000     1.702000000
H     0.370000000     2.187000000     2.630000000
C    -0.917000000     3.046000000     1.150000000
C    -0.921000000     4.521000000     1.601000000
O    -0.332000000     4.801000000     2.619000000
O    -1.689000000     5.362000000     1.137000000
