14
-90.78750
C    -2.136000000     1.591000000    -0.288000000
H    -3.132000000     1.806000000    -0.665000000
C    -1.527000000     0.337000000    -0.601000000
H    -1.999000000    -0.344000000    -1.304000000
C    -0.303000000     0.008000000    -0.072000000
H     0.223000000    -0.836000000    -0.383000000
C     0.356000000     0.943000000     0.786000000
H     1.389000000     0.756000000     1.071000000
C    -0.313000000     2.108000000     1.137000000
H     0.180000000     2.819000000     1.796000000
C    -1.515000000     2.537000000     0.508000000
C    -2.105000000     3.922000000     0.813000000
O    -1.597000000     4.630000000     1.669000000
O    -3.032000000     4.379000000     0.135000000
