14
-85.40516
C    -0.175000000     0.424000000    -1.631000000
H     0.116000000     0.183000000    -2.651000000
C     0.475000000    -0.226000000    -0.532000000
H     1.222000000    -1.015000000    -0.559000000
C     0.026000000     0.138000000     0.725000000
H     0.356000000    -0.468000000     1.603000000
C    -1.146000000     0.920000000     0.896000000
H    -1.514000000     1.165000000     1.889000000
C    -1.750000000     1.469000000    -0.215000000
H    -2.590000000     2.145000000    -0.077000000
C    -1.304000000     1.230000000    -1.519000000
C    -1.983000000     1.859000000    -2.676000000
O    -2.854000000     2.711000000    -2.554000000
O    -1.641000000     1.598000000    -3.839000000
