14
-81.17268
C    -1.577000000     1.652000000    -0.219000000
H    -2.546000000     1.911000000    -0.639000000
C    -1.160000000     0.383000000    -0.641000000
H    -1.709000000    -0.111000000    -1.438000000
C    -0.066000000    -0.204000000     0.023000000
H     0.232000000    -1.250000000    -0.196000000
C     0.670000000     0.552000000     0.892000000
H     1.571000000     0.170000000     1.366000000
C     0.285000000     1.813000000     1.253000000
H     0.774000000     2.367000000     2.050000000
C    -0.840000000     2.406000000     0.770000000
C    -1.299000000     3.679000000     1.313000000
O    -0.587000000     4.396000000     2.072000000
O    -2.220000000     4.253000000     0.730000000
