14
-88.54015
C    -1.764000000     1.464000000    -0.210000000
H    -2.768000000     1.813000000    -0.437000000
C    -1.527000000     0.118000000    -0.360000000
H    -2.321000000    -0.464000000    -0.821000000
C    -0.261000000    -0.383000000     0.077000000
H    -0.142000000    -1.465000000     0.034000000
C     0.658000000     0.517000000     0.605000000
H     1.646000000     0.194000000     0.925000000
C     0.365000000     1.886000000     0.800000000
H     1.096000000     2.543000000     1.265000000
C    -0.942000000     2.312000000     0.494000000
C    -1.297000000     3.811000000     0.578000000
O    -0.362000000     4.539000000     0.823000000
O    -2.409000000     4.276000000     0.260000000
