14
-83.92149
C    -1.972000000     0.774000000    -0.510000000
H    -2.991000000     1.012000000    -0.805000000
C    -1.500000000    -0.509000000    -0.722000000
H    -2.081000000    -1.232000000    -1.290000000
C    -0.199000000    -0.766000000    -0.389000000
H     0.188000000    -1.790000000    -0.431000000
C     0.582000000     0.148000000     0.368000000
H     1.584000000    -0.085000000     0.717000000
C     0.012000000     1.402000000     0.646000000
H     0.641000000     2.205000000     1.022000000
C    -1.279000000     1.728000000     0.214000000
C    -1.919000000     3.090000000     0.487000000
O    -1.312000000     3.920000000     1.067000000
O    -2.941000000     3.356000000    -0.096000000
