14
-84.37888
C    -2.597000000     1.463000000     0.673000000
H    -3.670000000     1.635000000     0.710000000
C    -2.052000000     0.209000000     0.444000000
H    -2.784000000    -0.576000000     0.269000000
C    -0.716000000    -0.047000000     0.300000000
H    -0.379000000    -1.140000000     0.239000000
C     0.200000000     1.031000000     0.369000000
H     1.255000000     0.806000000     0.233000000
C    -0.297000000     2.311000000     0.604000000
H     0.416000000     3.119000000     0.749000000
C    -1.648000000     2.519000000     0.715000000
C    -2.210000000     3.930000000     0.831000000
O    -1.637000000     4.889000000     0.440000000
O    -3.450000000     3.999000000     1.034000000
