14
-84.12036
C    -0.412000000     0.557000000    -2.324000000
H    -0.081000000     0.396000000    -3.347000000
C     0.212000000     0.035000000    -1.237000000
H     1.139000000    -0.515000000    -1.378000000
C    -0.101000000     0.545000000    -0.005000000
H     0.433000000     0.178000000     0.880000000
C    -1.114000000     1.477000000     0.188000000
H    -1.401000000     1.870000000     1.160000000
C    -1.890000000     1.855000000    -0.950000000
H    -2.723000000     2.531000000    -0.773000000
C    -1.395000000     1.502000000    -2.229000000
C    -1.942000000     2.076000000    -3.465000000
O    -2.691000000     3.045000000    -3.422000000
O    -1.525000000     1.713000000    -4.600000000
