14
-88.38162
C    -0.697000000     0.454000000    -3.188000000
H    -0.193000000     0.270000000    -4.133000000
C    -0.215000000    -0.166000000    -2.085000000
H     0.529000000    -0.930000000    -2.298000000
C    -0.697000000     0.070000000    -0.801000000
H    -0.312000000    -0.444000000     0.099000000
C    -1.728000000     0.945000000    -0.614000000
H    -2.097000000     1.215000000     0.373000000
C    -2.273000000     1.514000000    -1.744000000
H    -3.183000000     2.063000000    -1.517000000
C    -1.773000000     1.306000000    -3.038000000
C    -2.360000000     2.014000000    -4.219000000
O    -3.328000000     2.711000000    -4.034000000
O    -1.796000000     1.882000000    -5.304000000
