14
-80.10861
C    -2.601000000     0.901000000    -1.170000000
H    -3.468000000     1.017000000    -1.816000000
C    -2.218000000    -0.425000000    -0.768000000
H    -2.727000000    -1.312000000    -1.137000000
C    -0.999000000    -0.624000000    -0.090000000
H    -0.647000000    -1.600000000     0.251000000
C    -0.138000000     0.464000000     0.176000000
H     0.766000000     0.287000000     0.753000000
C    -0.546000000     1.748000000    -0.175000000
H     0.169000000     2.566000000    -0.136000000
C    -1.738000000     1.974000000    -0.793000000
C    -2.206000000     3.382000000    -0.993000000
O    -1.411000000     4.239000000    -1.082000000
O    -3.386000000     3.687000000    -1.085000000
