14
-80.40733
C    -2.211000000     1.323000000    -0.619000000
H    -3.172000000     1.582000000    -1.056000000
C    -1.979000000     0.017000000    -0.074000000
H    -2.666000000    -0.817000000    -0.194000000
C    -0.775000000    -0.272000000     0.535000000
H    -0.631000000    -1.223000000     0.943000000
C     0.296000000     0.649000000     0.554000000
H     1.260000000     0.383000000     0.979000000
C     0.099000000     1.904000000    -0.038000000
H     0.898000000     2.639000000    -0.096000000
C    -1.194000000     2.276000000    -0.551000000
C    -1.444000000     3.625000000    -1.061000000
O    -0.544000000     4.384000000    -1.254000000
O    -2.521000000     4.048000000    -1.494000000
