14
-84.51724
C    -1.334000000     0.223000000    -1.289000000
H    -2.094000000     0.183000000    -2.065000000
C    -1.063000000    -0.925000000    -0.608000000
H    -1.622000000    -1.850000000    -0.731000000
C    -0.104000000    -0.993000000     0.378000000
H     0.111000000    -1.850000000     0.920000000
C     0.651000000     0.159000000     0.579000000
H     1.466000000     0.160000000     1.298000000
C     0.454000000     1.385000000    -0.117000000
H     0.998000000     2.310000000     0.059000000
C    -0.645000000     1.435000000    -1.004000000
C    -1.128000000     2.724000000    -1.725000000
O    -0.853000000     3.806000000    -1.184000000
O    -1.960000000     2.745000000    -2.592000000
