14
-88.87862
C    -2.318000000     1.598000000     0.301000000
H    -3.279000000     1.899000000     0.710000000
C    -1.723000000     0.435000000     0.823000000
H    -2.067000000    -0.060000000     1.728000000
C    -0.560000000    -0.032000000     0.216000000
H    -0.134000000    -1.013000000     0.576000000
C     0.119000000     0.672000000    -0.769000000
H     1.067000000     0.261000000    -1.108000000
C    -0.444000000     1.856000000    -1.318000000
H    -0.131000000     2.463000000    -2.164000000
C    -1.642000000     2.321000000    -0.775000000
C    -2.380000000     3.460000000    -1.492000000
O    -1.863000000     4.030000000    -2.406000000
O    -3.538000000     3.727000000    -1.082000000
