14
-85.11920
C    -2.209000000     1.918000000    -0.026000000
H    -3.120000000     2.503000000     0.073000000
C    -1.951000000     0.835000000     0.698000000
H    -2.764000000     0.388000000     1.264000000
C    -0.709000000     0.277000000     0.630000000
H    -0.473000000    -0.634000000     1.131000000
C     0.283000000     0.778000000    -0.174000000
H     1.182000000     0.170000000    -0.239000000
C     0.025000000     1.934000000    -0.957000000
H     0.746000000     2.378000000    -1.639000000
C    -1.263000000     2.490000000    -0.855000000
C    -1.627000000     3.665000000    -1.758000000
O    -0.814000000     4.085000000    -2.604000000
O    -2.799000000     4.026000000    -1.873000000
