14
-85.38895
C    -1.457000000     2.405000000     0.363000000
H    -1.977000000     2.984000000     1.123000000
C    -1.085000000     1.061000000     0.650000000
H    -1.505000000     0.571000000     1.525000000
C    -0.443000000     0.320000000    -0.288000000
H    -0.043000000    -0.656000000    -0.032000000
C     0.042000000     0.902000000    -1.458000000
H     0.475000000     0.315000000    -2.263000000
C    -0.227000000     2.254000000    -1.758000000
H     0.030000000     2.628000000    -2.746000000
C    -1.060000000     3.036000000    -0.872000000
C    -1.477000000     4.426000000    -1.366000000
O    -0.917000000     4.908000000    -2.335000000
O    -2.375000000     4.989000000    -0.804000000
