14
-79.20711
C    -1.540000000     2.574000000    -0.374000000
H    -2.216000000     3.377000000    -0.091000000
C    -1.395000000     1.514000000     0.490000000
H    -1.924000000     1.531000000     1.440000000
C    -0.646000000     0.383000000     0.068000000
H    -0.386000000    -0.390000000     0.830000000
C    -0.024000000     0.417000000    -1.189000000
H     0.507000000    -0.469000000    -1.528000000
C    -0.121000000     1.566000000    -1.976000000
H     0.351000000     1.549000000    -2.955000000
C    -0.936000000     2.607000000    -1.574000000
C    -1.212000000     3.775000000    -2.501000000
O    -0.732000000     3.836000000    -3.566000000
O    -2.156000000     4.555000000    -2.294000000
