14
-82.73467
C    -1.154000000     1.289000000     0.488000000
H    -1.739000000     1.636000000     1.336000000
C    -0.406000000     0.140000000     0.566000000
H    -0.273000000    -0.392000000     1.504000000
C     0.220000000    -0.290000000    -0.583000000
H     0.846000000    -1.155000000    -0.604000000
C     0.149000000     0.349000000    -1.778000000
H     0.638000000    -0.101000000    -2.639000000
C    -0.644000000     1.486000000    -1.908000000
H    -0.756000000     1.927000000    -2.896000000
C    -1.293000000     2.046000000    -0.734000000
C    -2.052000000     3.400000000    -0.720000000
O    -2.114000000     4.114000000    -1.706000000
O    -2.550000000     3.798000000     0.286000000
