14
-88.44351
C    -1.275000000     1.246000000    -2.988000000
H    -0.841000000     0.881000000    -3.914000000
C    -0.924000000     0.899000000    -1.673000000
H    -0.222000000     0.087000000    -1.497000000
C    -1.563000000     1.429000000    -0.606000000
H    -1.333000000     1.138000000     0.391000000
C    -2.620000000     2.268000000    -0.887000000
H    -3.199000000     2.688000000    -0.068000000
C    -2.929000000     2.786000000    -2.155000000
H    -3.759000000     3.460000000    -2.352000000
C    -2.211000000     2.304000000    -3.222000000
C    -2.471000000     2.860000000    -4.621000000
O    -3.282000000     3.802000000    -4.684000000
O    -2.009000000     2.387000000    -5.650000000
