14
-83.21114
C    -2.714000000     1.095000000     0.210000000
H    -3.565000000     0.674000000     0.741000000
C    -1.421000000     0.594000000     0.428000000
H    -1.188000000    -0.158000000     1.177000000
C    -0.280000000     1.242000000    -0.068000000
H     0.730000000     0.720000000     0.109000000
C    -0.417000000     2.261000000    -1.000000000
H     0.439000000     2.794000000    -1.404000000
C    -1.653000000     2.708000000    -1.336000000
H    -1.656000000     3.426000000    -2.151000000
C    -2.830000000     2.194000000    -0.697000000
C    -4.242000000     2.564000000    -1.230000000
O    -4.368000000     3.400000000    -2.094000000
O    -5.275000000     2.004000000    -0.804000000
