14
-87.55133
C    -1.798000000     0.977000000     0.027000000
H    -2.753000000     1.351000000     0.387000000
C    -0.973000000     0.268000000     0.855000000
H    -1.277000000     0.065000000     1.879000000
C     0.288000000    -0.177000000     0.471000000
H     0.852000000    -0.823000000     1.099000000
C     0.774000000     0.245000000    -0.779000000
H     1.799000000    -0.015000000    -1.027000000
C    -0.050000000     0.999000000    -1.623000000
H     0.339000000     1.263000000    -2.603000000
C    -1.366000000     1.328000000    -1.225000000
C    -2.102000000     2.322000000    -2.141000000
O    -1.544000000     2.698000000    -3.215000000
O    -3.157000000     2.788000000    -1.880000000
