14
-89.64044
C    -1.308000000     1.518000000     0.410000000
H    -1.945000000     1.790000000     1.249000000
C    -0.462000000     0.431000000     0.524000000
H    -0.419000000    -0.009000000     1.517000000
C     0.447000000     0.090000000    -0.457000000
H     1.165000000    -0.738000000    -0.223000000
C     0.446000000     0.862000000    -1.618000000
H     1.197000000     0.663000000    -2.379000000
C    -0.437000000     1.896000000    -1.821000000
H    -0.373000000     2.420000000    -2.772000000
C    -1.290000000     2.336000000    -0.768000000
C    -2.156000000     3.556000000    -0.911000000
O    -2.001000000     4.190000000    -1.921000000
O    -2.932000000     3.908000000    -0.022000000
