14
-83.28757
C    -1.807000000    -0.351000000    -1.452000000
H    -2.641000000    -0.879000000    -1.908000000
C    -0.819000000    -0.999000000    -0.722000000
H    -0.846000000    -2.082000000    -0.642000000
C     0.087000000    -0.262000000     0.021000000
H     0.793000000    -0.928000000     0.557000000
C     0.112000000     1.105000000    -0.151000000
H     0.754000000     1.659000000     0.528000000
C    -0.805000000     1.746000000    -1.000000000
H    -0.681000000     2.806000000    -1.207000000
C    -1.844000000     1.006000000    -1.665000000
C    -2.893000000     1.646000000    -2.423000000
O    -3.004000000     2.871000000    -2.572000000
O    -3.750000000     0.970000000    -3.022000000
