14
-82.13935
C    -1.364000000    -0.666000000    -1.833000000
H    -1.956000000    -1.533000000    -2.112000000
C    -0.563000000    -0.674000000    -0.733000000
H    -0.479000000    -1.612000000    -0.191000000
C    -0.005000000     0.513000000    -0.332000000
H     0.606000000     0.445000000     0.512000000
C    -0.141000000     1.705000000    -1.027000000
H     0.218000000     2.628000000    -0.578000000
C    -0.990000000     1.720000000    -2.048000000
H    -1.179000000     2.740000000    -2.375000000
C    -1.599000000     0.549000000    -2.526000000
C    -2.615000000     0.613000000    -3.599000000
O    -3.052000000     1.727000000    -3.927000000
O    -3.193000000    -0.420000000    -3.998000000
