14
-88.50231
C    -2.067000000    -0.192000000    -1.627000000
H    -2.685000000    -0.995000000    -2.019000000
C    -0.935000000    -0.515000000    -0.862000000
H    -0.669000000    -1.554000000    -0.690000000
C    -0.208000000     0.512000000    -0.172000000
H     0.632000000     0.316000000     0.522000000
C    -0.595000000     1.822000000    -0.444000000
H    -0.002000000     2.628000000    -0.019000000
C    -1.682000000     2.107000000    -1.252000000
H    -1.953000000     3.115000000    -1.553000000
C    -2.456000000     1.112000000    -1.843000000
C    -3.724000000     1.369000000    -2.673000000
O    -4.394000000     2.355000000    -2.479000000
O    -4.039000000     0.565000000    -3.495000000
