14
-88.63963
C    -1.926000000    -0.340000000    -1.083000000
H    -2.988000000    -0.513000000    -0.927000000
C    -1.003000000    -0.235000000    -0.040000000
H    -1.361000000    -0.234000000     0.987000000
C     0.377000000    -0.051000000    -0.250000000
H     1.057000000    -0.067000000     0.665000000
C     0.892000000     0.096000000    -1.555000000
H     1.950000000     0.126000000    -1.801000000
C    -0.081000000    -0.031000000    -2.618000000
H     0.275000000     0.275000000    -3.598000000
C    -1.466000000    -0.163000000    -2.382000000
C    -2.394000000    -0.064000000    -3.592000000
O    -2.014000000     0.433000000    -4.651000000
O    -3.582000000    -0.351000000    -3.467000000
