14
-89.22199
C    -3.595000000     0.126000000    -1.434000000
H    -4.613000000     0.456000000    -1.627000000
C    -3.102000000     0.043000000    -0.128000000
H    -3.724000000     0.235000000     0.743000000
C    -1.848000000    -0.331000000     0.157000000
H    -1.380000000    -0.422000000     1.175000000
C    -1.060000000    -0.731000000    -0.905000000
H    -0.077000000    -1.150000000    -0.708000000
C    -1.517000000    -0.734000000    -2.251000000
H    -0.922000000    -1.125000000    -3.072000000
C    -2.782000000    -0.227000000    -2.518000000
C    -3.265000000     0.102000000    -3.938000000
O    -2.368000000     0.204000000    -4.810000000
O    -4.433000000     0.138000000    -4.208000000
