14
-87.08802
C    -2.395000000     0.317000000    -1.480000000
H    -3.452000000     0.390000000    -1.234000000
C    -1.487000000     0.444000000    -0.397000000
H    -1.836000000     0.618000000     0.618000000
C    -0.165000000     0.230000000    -0.596000000
H     0.422000000     0.355000000     0.349000000
C     0.279000000    -0.128000000    -1.900000000
H     1.351000000    -0.233000000    -2.048000000
C    -0.589000000    -0.206000000    -2.981000000
H    -0.213000000    -0.481000000    -3.963000000
C    -1.959000000     0.123000000    -2.814000000
C    -2.858000000     0.103000000    -4.059000000
O    -2.469000000    -0.486000000    -5.022000000
O    -3.994000000     0.545000000    -3.963000000
