14
-85.18115
C    -2.081000000    -0.826000000    -1.497000000
H    -2.588000000    -1.699000000    -1.899000000
C    -0.875000000    -0.993000000    -0.827000000
H    -0.385000000    -1.960000000    -0.743000000
C    -0.242000000     0.046000000    -0.172000000
H     0.654000000    -0.121000000     0.357000000
C    -0.763000000     1.305000000    -0.243000000
H    -0.294000000     2.199000000     0.160000000
C    -1.914000000     1.483000000    -1.028000000
H    -2.333000000     2.479000000    -0.916000000
C    -2.613000000     0.458000000    -1.669000000
C    -4.078000000     0.631000000    -2.168000000
O    -4.511000000     1.764000000    -2.260000000
O    -4.663000000    -0.285000000    -2.723000000
