14
-86.12901
C    -0.681000000     0.807000000    -2.456000000
H    -0.847000000     0.715000000    -3.527000000
C     0.546000000     0.472000000    -1.827000000
H     1.360000000     0.134000000    -2.463000000
C     0.656000000     0.537000000    -0.420000000
H     1.582000000     0.242000000    -0.005000000
C    -0.458000000     0.878000000     0.321000000
H    -0.313000000     0.797000000     1.396000000
C    -1.628000000     1.386000000    -0.278000000
H    -2.478000000     1.564000000     0.377000000
C    -1.741000000     1.388000000    -1.698000000
C    -2.950000000     2.013000000    -2.320000000
O    -3.568000000     2.895000000    -1.763000000
O    -3.136000000     1.781000000    -3.492000000
