14
-84.10226
C    -1.142000000     0.458000000    -2.963000000
H    -0.979000000     0.316000000    -4.029000000
C    -0.242000000    -0.111000000    -2.042000000
H     0.525000000    -0.813000000    -2.360000000
C    -0.338000000     0.125000000    -0.690000000
H     0.363000000    -0.282000000     0.097000000
C    -1.354000000     0.911000000    -0.250000000
H    -1.502000000     1.096000000     0.811000000
C    -2.221000000     1.482000000    -1.129000000
H    -2.959000000     2.181000000    -0.746000000
C    -2.106000000     1.321000000    -2.503000000
C    -2.885000000     2.162000000    -3.500000000
O    -3.707000000     3.030000000    -3.199000000
O    -2.684000000     2.034000000    -4.682000000
