14
-89.52709
C    -2.324000000    -1.293000000    -0.788000000
H    -3.329000000    -1.706000000    -0.816000000
C    -1.796000000    -0.785000000     0.419000000
H    -2.312000000    -0.816000000     1.375000000
C    -0.490000000    -0.234000000     0.453000000
H    -0.073000000     0.053000000     1.347000000
C     0.263000000    -0.159000000    -0.705000000
H     1.322000000     0.062000000    -0.599000000
C    -0.352000000    -0.490000000    -1.914000000
H     0.294000000    -0.417000000    -2.785000000
C    -1.599000000    -1.040000000    -1.956000000
C    -2.250000000    -1.313000000    -3.292000000
O    -1.715000000    -1.036000000    -4.339000000
O    -3.359000000    -1.811000000    -3.192000000
