14
-83.28450
C    -1.951000000    -0.819000000    -0.798000000
H    -3.003000000    -1.088000000    -0.757000000
C    -1.261000000    -0.336000000     0.282000000
H    -1.826000000    -0.111000000     1.183000000
C     0.040000000     0.086000000     0.109000000
H     0.706000000     0.546000000     0.950000000
C     0.681000000     0.018000000    -1.184000000
H     1.649000000     0.499000000    -1.297000000
C    -0.049000000    -0.392000000    -2.287000000
H     0.459000000    -0.312000000    -3.245000000
C    -1.380000000    -0.893000000    -2.121000000
C    -2.185000000    -1.456000000    -3.291000000
O    -1.678000000    -1.458000000    -4.369000000
O    -3.337000000    -1.826000000    -3.152000000
