14
-81.97615
C    -2.029000000     0.235000000    -0.265000000
H    -2.959000000     0.040000000     0.263000000
C    -0.808000000     0.248000000     0.479000000
H    -0.768000000    -0.103000000     1.507000000
C     0.380000000     0.513000000    -0.203000000
H     1.326000000     0.481000000     0.350000000
C     0.443000000     0.808000000    -1.586000000
H     1.365000000     1.008000000    -2.126000000
C    -0.797000000     0.832000000    -2.248000000
H    -0.860000000     1.153000000    -3.285000000
C    -2.014000000     0.475000000    -1.645000000
C    -3.279000000     0.588000000    -2.435000000
O    -3.279000000     0.948000000    -3.547000000
O    -4.282000000    -0.019000000    -2.027000000
