14
-86.85389
C    -2.061000000    -0.864000000    -1.547000000
H    -2.970000000    -1.310000000    -1.943000000
C    -1.721000000    -1.040000000    -0.230000000
H    -2.403000000    -1.643000000     0.364000000
C    -0.504000000    -0.480000000     0.264000000
H    -0.183000000    -0.641000000     1.266000000
C     0.328000000     0.201000000    -0.663000000
H     1.299000000     0.583000000    -0.358000000
C    -0.135000000     0.472000000    -1.961000000
H     0.450000000     1.152000000    -2.575000000
C    -1.290000000    -0.086000000    -2.435000000
C    -1.876000000     0.187000000    -3.797000000
O    -1.406000000     1.116000000    -4.456000000
O    -2.982000000    -0.206000000    -4.067000000
