14
-88.80652
C    -1.584000000    -0.286000000    -0.131000000
H    -2.455000000    -0.754000000     0.321000000
C    -0.288000000    -0.329000000     0.410000000
H    -0.070000000    -0.731000000     1.396000000
C     0.748000000     0.385000000    -0.181000000
H     1.751000000     0.404000000     0.232000000
C     0.601000000     0.976000000    -1.443000000
H     1.464000000     1.525000000    -1.812000000
C    -0.650000000     1.010000000    -1.995000000
H    -0.761000000     1.521000000    -2.948000000
C    -1.743000000     0.324000000    -1.384000000
C    -3.047000000     0.370000000    -2.069000000
O    -3.216000000     1.054000000    -3.136000000
O    -3.984000000    -0.373000000    -1.746000000
