14
-82.16569
C    -1.948000000    -0.406000000    -1.907000000
H    -2.783000000    -1.051000000    -2.168000000
C    -1.542000000    -0.265000000    -0.594000000
H    -2.123000000    -0.687000000     0.223000000
C    -0.470000000     0.644000000    -0.328000000
H    -0.248000000     0.761000000     0.733000000
C     0.274000000     1.190000000    -1.337000000
H     1.155000000     1.766000000    -1.066000000
C    -0.135000000     1.093000000    -2.647000000
H     0.447000000     1.610000000    -3.406000000
C    -1.246000000     0.287000000    -2.925000000
C    -1.606000000    -0.092000000    -4.327000000
O    -1.048000000     0.401000000    -5.227000000
O    -2.536000000    -0.861000000    -4.564000000
