14
-83.46069
C    -1.539000000    -0.538000000    -0.757000000
H    -2.544000000    -0.947000000    -0.694000000
C    -0.719000000    -0.616000000     0.352000000
H    -1.057000000    -1.063000000     1.284000000
C     0.548000000     0.008000000     0.384000000
H     1.167000000     0.187000000     1.301000000
C     0.956000000     0.667000000    -0.755000000
H     1.894000000     1.215000000    -0.733000000
C     0.210000000     0.717000000    -1.917000000
H     0.654000000     1.304000000    -2.717000000
C    -1.019000000     0.071000000    -1.957000000
C    -1.798000000    -0.141000000    -3.308000000
O    -1.424000000     0.457000000    -4.284000000
O    -2.804000000    -0.784000000    -3.371000000
