14
-89.38445
C    -1.636000000    -0.805000000    -0.711000000
H    -2.605000000    -1.297000000    -0.710000000
C    -1.084000000    -0.603000000     0.556000000
H    -1.622000000    -0.972000000     1.426000000
C     0.128000000    -0.055000000     0.795000000
H     0.550000000     0.038000000     1.818000000
C     0.823000000     0.330000000    -0.347000000
H     1.788000000     0.780000000    -0.129000000
C     0.360000000     0.156000000    -1.673000000
H     0.906000000     0.564000000    -2.520000000
C    -0.891000000    -0.371000000    -1.817000000
C    -1.506000000    -0.467000000    -3.197000000
O    -0.933000000    -0.117000000    -4.233000000
O    -2.706000000    -0.845000000    -3.210000000
