14
-87.96952
C    -1.123000000     1.114000000    -0.097000000
H    -1.587000000     2.037000000     0.242000000
C    -0.184000000     0.525000000     0.746000000
H     0.126000000     0.897000000     1.719000000
C     0.468000000    -0.603000000     0.348000000
H     1.169000000    -1.085000000     0.987000000
C     0.077000000    -1.227000000    -0.823000000
H     0.565000000    -2.141000000    -1.151000000
C    -1.008000000    -0.715000000    -1.597000000
H    -1.296000000    -1.284000000    -2.477000000
C    -1.648000000     0.541000000    -1.269000000
C    -2.826000000     1.050000000    -2.079000000
O    -3.031000000     0.585000000    -3.221000000
O    -3.609000000     1.895000000    -1.646000000
