14
-79.93863
C    -1.913000000     1.327000000    -1.338000000
H    -2.638000000     2.001000000    -1.786000000
C    -1.106000000     1.737000000    -0.298000000
H    -0.851000000     2.745000000     0.017000000
C    -0.247000000     0.833000000     0.335000000
H     0.566000000     1.185000000     1.025000000
C    -0.303000000    -0.503000000    -0.001000000
H     0.351000000    -1.214000000     0.498000000
C    -1.262000000    -0.983000000    -0.910000000
H    -1.302000000    -2.041000000    -1.157000000
C    -2.083000000    -0.059000000    -1.620000000
C    -2.933000000    -0.432000000    -2.797000000
O    -3.218000000    -1.595000000    -3.025000000
O    -3.541000000     0.379000000    -3.435000000
