14
-85.15943
C    -1.986000000     1.039000000    -1.079000000
H    -2.798000000     1.758000000    -1.006000000
C    -0.932000000     1.006000000    -0.169000000
H    -0.910000000     1.795000000     0.579000000
C    -0.089000000    -0.079000000    -0.122000000
H     0.711000000    -0.115000000     0.583000000
C    -0.369000000    -1.210000000    -0.937000000
H     0.254000000    -2.100000000    -0.900000000
C    -1.400000000    -1.088000000    -1.931000000
H    -1.561000000    -1.884000000    -2.653000000
C    -2.232000000     0.036000000    -2.012000000
C    -3.406000000     0.221000000    -3.009000000
O    -3.820000000    -0.730000000    -3.634000000
O    -3.870000000     1.293000000    -3.110000000
