14
-81.64230
C    -3.018000000    -0.477000000    -0.197000000
H    -3.900000000    -1.081000000     0.000000000
C    -1.977000000    -0.636000000     0.660000000
H    -2.223000000    -1.007000000     1.652000000
C    -0.741000000    -0.022000000     0.409000000
H     0.130000000    -0.090000000     1.107000000
C    -0.532000000     0.616000000    -0.814000000
H     0.480000000     0.935000000    -1.051000000
C    -1.569000000     0.732000000    -1.704000000
H    -1.442000000     1.191000000    -2.681000000
C    -2.836000000     0.127000000    -1.442000000
C    -3.988000000     0.324000000    -2.351000000
O    -3.810000000     1.005000000    -3.300000000
O    -4.945000000    -0.473000000    -2.298000000
