14
-82.40268
C    -1.286000000     1.618000000    -0.278000000
H    -1.428000000     2.643000000     0.056000000
C    -0.295000000     0.898000000     0.345000000
H     0.401000000     1.355000000     1.043000000
C    -0.052000000    -0.411000000    -0.057000000
H     0.726000000    -1.006000000     0.432000000
C    -0.937000000    -0.991000000    -0.919000000
H    -0.663000000    -1.952000000    -1.348000000
C    -1.940000000    -0.267000000    -1.579000000
H    -2.497000000    -0.677000000    -2.418000000
C    -2.168000000     1.050000000    -1.219000000
C    -3.126000000     1.938000000    -2.036000000
O    -3.771000000     1.438000000    -2.901000000
O    -3.414000000     3.030000000    -1.629000000
