14
-82.51158
C    -2.476000000     1.722000000    -0.481000000
H    -3.158000000     2.502000000    -0.810000000
C    -1.443000000     1.879000000     0.441000000
H    -1.269000000     2.887000000     0.810000000
C    -0.422000000     0.919000000     0.594000000
H     0.382000000     1.064000000     1.198000000
C    -0.450000000    -0.282000000    -0.089000000
H     0.450000000    -0.884000000    -0.186000000
C    -1.581000000    -0.514000000    -0.931000000
H    -1.626000000    -1.502000000    -1.383000000
C    -2.581000000     0.496000000    -1.147000000
C    -3.732000000     0.228000000    -2.078000000
O    -3.812000000    -0.790000000    -2.729000000
O    -4.557000000     1.097000000    -2.275000000
