14
-84.29661
C    -2.145000000     1.699000000    -0.348000000
H    -2.786000000     2.577000000    -0.377000000
C    -0.849000000     1.757000000     0.133000000
H    -0.389000000     2.669000000     0.506000000
C    -0.081000000     0.579000000     0.179000000
H     0.987000000     0.604000000     0.337000000
C    -0.613000000    -0.591000000    -0.337000000
H     0.016000000    -1.470000000    -0.448000000
C    -1.957000000    -0.749000000    -0.723000000
H    -2.376000000    -1.672000000    -1.115000000
C    -2.750000000     0.492000000    -0.726000000
C    -4.206000000     0.552000000    -1.108000000
O    -4.798000000    -0.503000000    -1.223000000
O    -4.649000000     1.577000000    -1.524000000
