14
-89.16102
C    -3.366000000     0.500000000     0.062000000
H    -4.191000000     1.054000000     0.501000000
C    -2.068000000     0.953000000    -0.023000000
H    -1.856000000     1.937000000     0.387000000
C    -1.087000000     0.232000000    -0.677000000
H    -0.106000000     0.694000000    -0.772000000
C    -1.444000000    -0.991000000    -1.279000000
H    -0.702000000    -1.606000000    -1.781000000
C    -2.797000000    -1.419000000    -1.311000000
H    -3.104000000    -2.328000000    -1.820000000
C    -3.735000000    -0.675000000    -0.646000000
C    -5.152000000    -1.048000000    -0.714000000
O    -5.418000000    -2.190000000    -1.141000000
O    -6.080000000    -0.320000000    -0.442000000
