14
-83.98997
C    -2.490000000     1.114000000    -0.749000000
H    -3.219000000     1.898000000    -0.940000000
C    -1.308000000     1.382000000    -0.075000000
H    -1.084000000     2.366000000     0.328000000
C    -0.353000000     0.348000000     0.122000000
H     0.606000000     0.642000000     0.578000000
C    -0.648000000    -0.874000000    -0.420000000
H     0.022000000    -1.730000000    -0.389000000
C    -1.760000000    -1.078000000    -1.186000000
H    -2.009000000    -2.081000000    -1.524000000
C    -2.782000000    -0.105000000    -1.233000000
C    -4.176000000    -0.403000000    -1.785000000
O    -4.392000000    -1.515000000    -2.208000000
O    -5.088000000     0.412000000    -1.842000000
