14
-89.90067
C    -2.428000000     1.766000000    -1.008000000
H    -3.240000000     2.473000000    -1.159000000
C    -1.458000000     1.970000000    -0.050000000
H    -1.415000000     2.953000000     0.411000000
C    -0.456000000     0.993000000     0.143000000
H     0.272000000     1.198000000     0.909000000
C    -0.542000000    -0.214000000    -0.571000000
H     0.233000000    -0.962000000    -0.429000000
C    -1.614000000    -0.388000000    -1.487000000
H    -1.540000000    -1.279000000    -2.104000000
C    -2.556000000     0.594000000    -1.715000000
C    -3.539000000     0.447000000    -2.900000000
O    -3.728000000    -0.629000000    -3.472000000
O    -4.189000000     1.417000000    -3.212000000
