14
-82.85162
C    -2.323000000     1.158000000    -0.395000000
H    -2.666000000     2.179000000    -0.246000000
C    -1.055000000     0.800000000     0.019000000
H    -0.417000000     1.597000000     0.392000000
C    -0.723000000    -0.546000000     0.007000000
H     0.270000000    -0.740000000     0.410000000
C    -1.660000000    -1.504000000    -0.455000000
H    -1.363000000    -2.549000000    -0.429000000
C    -2.879000000    -1.139000000    -0.936000000
H    -3.510000000    -1.903000000    -1.382000000
C    -3.286000000     0.234000000    -0.814000000
C    -4.749000000     0.600000000    -1.196000000
O    -5.584000000    -0.231000000    -1.248000000
O    -5.042000000     1.720000000    -1.659000000
