14
-77.89912
C    -2.180000000     1.174000000    -0.252000000
H    -2.622000000     2.161000000    -0.138000000
C    -0.929000000     1.015000000     0.318000000
H    -0.437000000     1.754000000     0.945000000
C    -0.355000000    -0.196000000     0.093000000
H     0.645000000    -0.348000000     0.614000000
C    -0.999000000    -1.209000000    -0.648000000
H    -0.487000000    -2.160000000    -0.777000000
C    -2.259000000    -1.020000000    -1.118000000
H    -2.638000000    -1.752000000    -1.827000000
C    -2.914000000     0.169000000    -0.887000000
C    -4.250000000     0.489000000    -1.487000000
O    -4.650000000    -0.281000000    -2.278000000
O    -4.883000000     1.457000000    -1.190000000
