14
-91.23260
C    -2.326000000     1.153000000     0.064000000
H    -2.813000000     2.030000000     0.483000000
C    -0.999000000     1.001000000     0.324000000
H    -0.520000000     1.803000000     0.880000000
C    -0.226000000    -0.104000000    -0.101000000
H     0.835000000    -0.120000000     0.088000000
C    -0.920000000    -1.039000000    -0.893000000
H    -0.437000000    -1.942000000    -1.258000000
C    -2.283000000    -0.898000000    -1.242000000
H    -2.809000000    -1.553000000    -1.932000000
C    -2.980000000     0.218000000    -0.749000000
C    -4.370000000     0.555000000    -1.194000000
O    -4.981000000    -0.328000000    -1.799000000
O    -4.763000000     1.684000000    -1.062000000
