14
-82.07908
C    -1.619000000     0.270000000     0.336000000
H    -2.008000000     1.027000000     1.011000000
C    -0.263000000    -0.038000000     0.370000000
H     0.346000000     0.284000000     1.211000000
C     0.291000000    -0.852000000    -0.575000000
H     1.348000000    -1.112000000    -0.542000000
C    -0.462000000    -1.215000000    -1.659000000
H    -0.026000000    -1.877000000    -2.403000000
C    -1.829000000    -0.981000000    -1.654000000
H    -2.310000000    -1.343000000    -2.560000000
C    -2.396000000    -0.236000000    -0.688000000
C    -3.844000000     0.157000000    -0.738000000
O    -4.590000000    -0.390000000    -1.511000000
O    -4.236000000     1.152000000    -0.174000000
