14
-86.40973
C    -1.865000000     0.674000000     0.088000000
H    -2.488000000     1.517000000     0.378000000
C    -0.489000000     0.701000000     0.363000000
H    -0.079000000     1.532000000     0.932000000
C     0.326000000    -0.372000000     0.086000000
H     1.300000000    -0.403000000     0.375000000
C    -0.147000000    -1.478000000    -0.650000000
H     0.527000000    -2.301000000    -0.873000000
C    -1.535000000    -1.524000000    -0.943000000
H    -2.004000000    -2.322000000    -1.512000000
C    -2.385000000    -0.475000000    -0.587000000
C    -3.849000000    -0.485000000    -0.861000000
O    -4.420000000    -1.377000000    -1.399000000
O    -4.372000000     0.667000000    -0.780000000
