14
-87.58135
C    -2.028000000     1.764000000    -0.272000000
H    -2.695000000     2.620000000    -0.215000000
C    -0.778000000     1.762000000     0.229000000
H    -0.369000000     2.663000000     0.678000000
C     0.085000000     0.660000000     0.162000000
H     1.164000000     0.681000000     0.363000000
C    -0.386000000    -0.510000000    -0.402000000
H     0.193000000    -1.421000000    -0.533000000
C    -1.670000000    -0.567000000    -0.950000000
H    -1.971000000    -1.415000000    -1.559000000
C    -2.516000000     0.563000000    -0.810000000
C    -3.932000000     0.560000000    -1.306000000
O    -4.451000000    -0.503000000    -1.620000000
O    -4.565000000     1.589000000    -1.514000000
