14
-82.26005
C    -2.821000000    -0.036000000     0.783000000
H    -3.339000000    -0.342000000     1.688000000
C    -1.529000000    -0.578000000     0.571000000
H    -1.190000000    -1.317000000     1.292000000
C    -0.684000000    -0.096000000    -0.429000000
H     0.331000000    -0.460000000    -0.543000000
C    -1.161000000     0.813000000    -1.389000000
H    -0.593000000     1.355000000    -2.142000000
C    -2.475000000     1.295000000    -1.215000000
H    -2.887000000     1.960000000    -1.970000000
C    -3.294000000     0.938000000    -0.123000000
C    -4.799000000     1.318000000     0.029000000
O    -5.404000000     1.847000000    -0.874000000
O    -5.396000000     0.863000000     0.937000000
