14
-88.92461
C    -1.392000000    -0.009000000    -1.966000000
H    -1.491000000    -0.691000000    -2.806000000
C    -0.523000000    -0.291000000    -0.931000000
H     0.165000000    -1.129000000    -1.004000000
C    -0.575000000     0.424000000     0.256000000
H     0.063000000     0.138000000     1.096000000
C    -1.381000000     1.580000000     0.322000000
H    -1.430000000     2.085000000     1.283000000
C    -2.247000000     1.917000000    -0.762000000
H    -2.920000000     2.768000000    -0.700000000
C    -2.275000000     1.125000000    -1.862000000
C    -3.096000000     1.518000000    -3.005000000
O    -3.653000000     2.607000000    -2.992000000
O    -3.316000000     0.735000000    -3.921000000
