14
-85.57424
C    -2.535000000    -1.180000000     0.020000000
H    -3.124000000    -1.808000000     0.683000000
C    -1.130000000    -0.986000000     0.223000000
H    -0.558000000    -1.516000000     0.980000000
C    -0.482000000    -0.167000000    -0.681000000
H     0.572000000     0.118000000    -0.554000000
C    -1.140000000     0.469000000    -1.752000000
H    -0.544000000     1.105000000    -2.402000000
C    -2.493000000     0.215000000    -1.939000000
H    -3.046000000     0.541000000    -2.816000000
C    -3.245000000    -0.549000000    -1.014000000
C    -4.761000000    -0.639000000    -1.285000000
O    -5.265000000     0.229000000    -1.982000000
O    -5.507000000    -1.285000000    -0.586000000
