14
-87.40954
C    -2.210000000     0.169000000     0.575000000
H    -3.010000000     0.002000000     1.292000000
C    -1.011000000    -0.501000000     0.673000000
H    -0.907000000    -1.201000000     1.499000000
C     0.075000000    -0.260000000    -0.133000000
H     0.933000000    -0.885000000     0.036000000
C     0.019000000     0.751000000    -1.103000000
H     0.897000000     0.834000000    -1.738000000
C    -1.208000000     1.310000000    -1.310000000
H    -1.393000000     1.895000000    -2.207000000
C    -2.334000000     1.082000000    -0.447000000
C    -3.687000000     1.712000000    -0.699000000
O    -3.803000000     2.409000000    -1.697000000
O    -4.676000000     1.330000000    -0.090000000
