14
-80.64726
C    -2.224000000     0.318000000     0.660000000
H    -2.873000000     0.062000000     1.494000000
C    -0.935000000    -0.259000000     0.699000000
H    -0.586000000    -0.783000000     1.585000000
C    -0.141000000    -0.175000000    -0.435000000
H     0.852000000    -0.509000000    -0.444000000
C    -0.482000000     0.591000000    -1.508000000
H     0.139000000     0.737000000    -2.388000000
C    -1.704000000     1.184000000    -1.537000000
H    -1.934000000     1.793000000    -2.407000000
C    -2.628000000     0.930000000    -0.498000000
C    -4.018000000     1.432000000    -0.586000000
O    -4.400000000     1.884000000    -1.657000000
O    -4.776000000     1.241000000     0.296000000
