14
-86.49710
C    -2.095000000    -1.452000000     0.134000000
H    -2.336000000    -2.422000000     0.560000000
C    -0.843000000    -0.854000000     0.418000000
H    -0.114000000    -1.300000000     1.090000000
C    -0.574000000     0.372000000    -0.203000000
H     0.408000000     0.811000000    -0.127000000
C    -1.497000000     0.931000000    -1.081000000
H    -1.187000000     1.886000000    -1.499000000
C    -2.779000000     0.386000000    -1.303000000
H    -3.499000000     0.888000000    -1.943000000
C    -3.119000000    -0.798000000    -0.650000000
C    -4.439000000    -1.493000000    -0.896000000
O    -5.266000000    -0.989000000    -1.584000000
O    -4.755000000    -2.436000000    -0.173000000
