14
-86.80227
C    -1.997000000    -0.398000000     0.286000000
H    -2.974000000    -0.574000000     0.730000000
C    -0.867000000    -0.455000000     1.091000000
H    -0.957000000    -0.660000000     2.155000000
C     0.362000000    -0.107000000     0.556000000
H     1.328000000    -0.113000000     1.216000000
C     0.454000000     0.313000000    -0.730000000
H     1.443000000     0.685000000    -0.989000000
C    -0.626000000     0.377000000    -1.524000000
H    -0.594000000     0.646000000    -2.577000000
C    -1.861000000    -0.032000000    -1.079000000
C    -3.106000000     0.066000000    -1.983000000
O    -2.989000000     0.352000000    -3.161000000
O    -4.210000000    -0.097000000    -1.495000000
