14
-89.18846
C    -1.458000000    -0.621000000     1.011000000
H    -1.849000000    -0.832000000     2.003000000
C    -0.137000000    -0.280000000     0.728000000
H     0.504000000    -0.226000000     1.604000000
C     0.301000000     0.093000000    -0.516000000
H     1.373000000     0.290000000    -0.656000000
C    -0.553000000     0.133000000    -1.580000000
H    -0.256000000     0.441000000    -2.579000000
C    -1.874000000    -0.330000000    -1.323000000
H    -2.448000000    -0.447000000    -2.239000000
C    -2.374000000    -0.664000000    -0.064000000
C    -3.827000000    -1.114000000     0.026000000
O    -4.467000000    -1.203000000    -1.009000000
O    -4.260000000    -1.516000000     1.079000000
