14
-79.85049
C    -1.324000000    -0.080000000     0.966000000
H    -1.561000000     0.048000000     2.019000000
C     0.040000000    -0.040000000     0.616000000
H     0.775000000     0.261000000     1.358000000
C     0.344000000    -0.357000000    -0.685000000
H     1.341000000    -0.367000000    -1.054000000
C    -0.607000000    -0.685000000    -1.602000000
H    -0.312000000    -0.912000000    -2.623000000
C    -1.980000000    -0.649000000    -1.306000000
H    -2.781000000    -0.858000000    -2.011000000
C    -2.396000000    -0.415000000     0.034000000
C    -3.881000000    -0.670000000     0.416000000
O    -4.752000000    -0.943000000    -0.386000000
O    -4.191000000    -0.637000000     1.555000000
