14
-90.45194
C    -0.939000000     0.301000000    -2.169000000
H    -1.079000000     0.154000000    -3.237000000
C    -0.125000000    -0.538000000    -1.378000000
H     0.365000000    -1.428000000    -1.762000000
C    -0.126000000    -0.311000000     0.041000000
H     0.427000000    -1.025000000     0.757000000
C    -0.826000000     0.832000000     0.562000000
H    -0.670000000     0.964000000     1.629000000
C    -1.612000000     1.688000000    -0.282000000
H    -2.107000000     2.572000000     0.110000000
C    -1.662000000     1.371000000    -1.651000000
C    -2.466000000     2.253000000    -2.566000000
O    -3.190000000     3.089000000    -2.004000000
O    -2.287000000     2.236000000    -3.800000000
