14
-84.08793
C    -2.028000000    -1.090000000     0.097000000
H    -2.345000000    -2.130000000     0.118000000
C    -0.673000000    -0.717000000     0.022000000
H     0.094000000    -1.486000000     0.042000000
C    -0.314000000     0.550000000    -0.135000000
H     0.817000000     0.645000000    -0.130000000
C    -1.214000000     1.575000000    -0.302000000
H    -1.014000000     2.639000000    -0.395000000
C    -2.580000000     1.185000000    -0.185000000
H    -3.272000000     1.983000000    -0.440000000
C    -3.002000000    -0.107000000     0.111000000
C    -4.483000000    -0.519000000     0.072000000
O    -5.286000000     0.289000000    -0.354000000
O    -4.810000000    -1.629000000     0.429000000
