14
-73.79641
C    -2.460000000    -1.795000000     0.140000000
H    -2.612000000    -2.856000000    -0.041000000
C    -1.114000000    -1.393000000     0.038000000
H    -0.288000000    -2.064000000    -0.184000000
C    -0.842000000    -0.062000000     0.260000000
H     0.131000000     0.398000000     0.093000000
C    -1.850000000     0.853000000     0.625000000
H    -1.546000000     1.851000000     0.931000000
C    -3.192000000     0.378000000     0.799000000
H    -3.922000000     1.093000000     1.171000000
C    -3.507000000    -0.947000000     0.376000000
C    -4.860000000    -1.409000000     0.594000000
O    -5.792000000    -0.656000000     0.494000000
O    -5.112000000    -2.587000000     0.412000000
