14
-92.77230
C    -1.473000000     0.615000000    -1.548000000
H    -1.319000000     0.782000000    -2.611000000
C    -0.332000000     0.401000000    -0.712000000
H     0.649000000     0.529000000    -1.162000000
C    -0.462000000    -0.036000000     0.616000000
H     0.441000000    -0.254000000     1.177000000
C    -1.731000000    -0.201000000     1.137000000
H    -1.859000000    -0.577000000     2.149000000
C    -2.839000000    -0.001000000     0.364000000
H    -3.845000000    -0.146000000     0.749000000
C    -2.735000000     0.305000000    -0.993000000
C    -3.950000000     0.355000000    -1.869000000
O    -4.987000000     0.570000000    -1.285000000
O    -3.853000000     0.123000000    -3.078000000
