14
-84.91770
C    -1.178000000    -1.604000000    -0.894000000
H    -1.066000000    -2.598000000    -1.319000000
C     0.022000000    -1.008000000    -0.422000000
H     0.975000000    -1.526000000    -0.346000000
C    -0.007000000     0.186000000     0.238000000
H     0.860000000     0.648000000     0.661000000
C    -1.151000000     0.922000000     0.262000000
H    -1.258000000     1.886000000     0.754000000
C    -2.342000000     0.396000000    -0.258000000
H    -3.240000000     0.990000000    -0.111000000
C    -2.361000000    -0.882000000    -0.844000000
C    -3.709000000    -1.389000000    -1.379000000
O    -4.696000000    -0.671000000    -1.287000000
O    -3.663000000    -2.348000000    -2.058000000
