14
-85.46433
C    -0.621000000     0.588000000    -2.746000000
H    -0.458000000     1.285000000    -3.564000000
C     0.317000000     0.648000000    -1.624000000
H     1.187000000     1.270000000    -1.821000000
C     0.092000000    -0.109000000    -0.476000000
H     0.785000000    -0.127000000     0.376000000
C    -1.021000000    -0.913000000    -0.380000000
H    -1.258000000    -1.399000000     0.563000000
C    -1.932000000    -0.984000000    -1.449000000
H    -2.745000000    -1.703000000    -1.399000000
C    -1.749000000    -0.216000000    -2.643000000
C    -2.804000000    -0.106000000    -3.664000000
O    -3.895000000    -0.663000000    -3.519000000
O    -2.760000000     0.769000000    -4.537000000
