14
-85.38867
C    -1.384000000    -0.338000000    -2.618000000
H    -1.522000000    -0.134000000    -3.677000000
C    -0.165000000     0.076000000    -2.045000000
H     0.643000000     0.524000000    -2.617000000
C     0.086000000    -0.246000000    -0.743000000
H     1.061000000    -0.021000000    -0.351000000
C    -0.956000000    -0.801000000     0.066000000
H    -0.750000000    -0.960000000     1.121000000
C    -2.151000000    -1.159000000    -0.462000000
H    -2.982000000    -1.468000000     0.166000000
C    -2.361000000    -1.002000000    -1.871000000
C    -3.640000000    -1.550000000    -2.530000000
O    -4.457000000    -2.183000000    -1.925000000
O    -3.933000000    -1.076000000    -3.600000000
