14
-86.40249
C    -0.238000000     1.041000000    -1.947000000
H     0.203000000     1.859000000    -2.511000000
C     0.334000000     0.589000000    -0.783000000
H     1.276000000     0.973000000    -0.400000000
C    -0.289000000    -0.311000000     0.027000000
H     0.173000000    -0.746000000     0.863000000
C    -1.569000000    -0.767000000    -0.353000000
H    -2.122000000    -1.424000000     0.313000000
C    -2.173000000    -0.343000000    -1.563000000
H    -3.205000000    -0.628000000    -1.749000000
C    -1.502000000     0.543000000    -2.365000000
C    -2.194000000     1.170000000    -3.563000000
O    -3.430000000     1.193000000    -3.538000000
O    -1.656000000     1.915000000    -4.377000000
