14
-85.59811
C    -0.938000000     1.029000000    -1.777000000
H    -0.582000000     1.832000000    -2.418000000
C    -0.107000000     0.647000000    -0.679000000
H     0.822000000     1.160000000    -0.442000000
C    -0.591000000    -0.299000000     0.212000000
H     0.082000000    -0.583000000     1.065000000
C    -1.857000000    -0.870000000     0.006000000
H    -2.200000000    -1.622000000     0.712000000
C    -2.619000000    -0.575000000    -1.085000000
H    -3.611000000    -0.972000000    -1.288000000
C    -2.079000000     0.362000000    -1.989000000
C    -2.903000000     0.776000000    -3.213000000
O    -3.924000000     0.183000000    -3.464000000
O    -2.558000000     1.642000000    -3.972000000
