14
-86.02810
C    -0.331000000     0.800000000    -2.303000000
H     0.186000000     1.370000000    -3.071000000
C     0.291000000     0.453000000    -1.102000000
H     1.329000000     0.706000000    -0.898000000
C    -0.410000000    -0.154000000    -0.105000000
H     0.192000000    -0.432000000     0.824000000
C    -1.701000000    -0.640000000    -0.358000000
H    -2.298000000    -1.119000000     0.413000000
C    -2.330000000    -0.325000000    -1.585000000
H    -3.346000000    -0.679000000    -1.737000000
C    -1.653000000     0.379000000    -2.540000000
C    -2.443000000     0.884000000    -3.733000000
O    -3.538000000     0.459000000    -4.130000000
O    -2.048000000     1.898000000    -4.298000000
