14
-88.52721
C    -0.419000000     0.781000000    -1.895000000
H    -0.120000000     1.411000000    -2.728000000
C     0.429000000     0.561000000    -0.817000000
H     1.404000000     1.040000000    -0.788000000
C     0.006000000    -0.267000000     0.242000000
H     0.744000000    -0.527000000     1.018000000
C    -1.200000000    -0.870000000     0.204000000
H    -1.575000000    -1.510000000     0.998000000
C    -2.085000000    -0.629000000    -0.848000000
H    -3.060000000    -1.106000000    -0.909000000
C    -1.677000000     0.168000000    -1.927000000
C    -2.681000000     0.416000000    -3.012000000
O    -3.704000000    -0.286000000    -3.112000000
O    -2.668000000     1.370000000    -3.810000000
