14
-89.91238
C    -0.896000000     0.500000000    -2.189000000
H    -0.506000000     1.072000000    -3.027000000
C    -0.185000000     0.324000000    -0.951000000
H     0.853000000     0.634000000    -0.855000000
C    -0.854000000    -0.234000000     0.100000000
H    -0.404000000    -0.396000000     1.063000000
C    -2.160000000    -0.739000000    -0.001000000
H    -2.718000000    -1.112000000     0.854000000
C    -2.821000000    -0.607000000    -1.213000000
H    -3.826000000    -1.013000000    -1.284000000
C    -2.169000000    -0.040000000    -2.370000000
C    -2.899000000    -0.086000000    -3.680000000
O    -3.960000000    -0.732000000    -3.751000000
O    -2.559000000     0.567000000    -4.651000000
