14
-93.15974
C    -1.431000000     1.187000000    -2.239000000
H    -1.233000000     1.716000000    -3.168000000
C    -0.302000000     0.803000000    -1.511000000
H     0.707000000     1.014000000    -1.854000000
C    -0.553000000     0.137000000    -0.330000000
H     0.235000000    -0.200000000     0.368000000
C    -1.891000000    -0.037000000     0.079000000
H    -2.086000000    -0.388000000     1.089000000
C    -3.023000000     0.231000000    -0.734000000
H    -4.016000000    -0.008000000    -0.364000000
C    -2.768000000     0.860000000    -1.971000000
C    -3.897000000     1.248000000    -2.895000000
O    -5.005000000     0.751000000    -2.720000000
O    -3.656000000     2.116000000    -3.776000000
