14
-92.49523
C    -1.151000000     0.553000000    -2.606000000
H    -0.680000000     0.835000000    -3.545000000
C    -0.419000000     0.097000000    -1.529000000
H     0.665000000     0.129000000    -1.595000000
C    -1.057000000    -0.242000000    -0.322000000
H    -0.415000000    -0.587000000     0.518000000
C    -2.447000000    -0.188000000    -0.271000000
H    -2.958000000    -0.539000000     0.622000000
C    -3.221000000     0.186000000    -1.345000000
H    -4.305000000     0.257000000    -1.372000000
C    -2.554000000     0.531000000    -2.545000000
C    -3.345000000     0.917000000    -3.844000000
O    -4.526000000     0.629000000    -3.785000000
O    -2.770000000     1.257000000    -4.845000000
