14
-87.17377
C    -0.489000000     1.617000000    -2.121000000
H    -0.193000000     2.326000000    -2.890000000
C     0.372000000     1.290000000    -1.055000000
H     1.364000000     1.733000000    -1.021000000
C    -0.129000000     0.380000000    -0.060000000
H     0.482000000     0.199000000     0.837000000
C    -1.371000000    -0.272000000    -0.244000000
H    -1.703000000    -0.996000000     0.496000000
C    -2.188000000     0.064000000    -1.321000000
H    -3.156000000    -0.412000000    -1.460000000
C    -1.646000000     0.913000000    -2.343000000
C    -2.463000000     1.270000000    -3.572000000
O    -3.663000000     1.116000000    -3.484000000
O    -1.968000000     2.021000000    -4.403000000
