14
-86.50967
C    -0.238000000     0.537000000    -2.523000000
H     0.475000000     0.828000000    -3.290000000
C     0.326000000     0.194000000    -1.309000000
H     1.397000000     0.218000000    -1.122000000
C    -0.424000000    -0.169000000    -0.231000000
H    -0.003000000    -0.367000000     0.664000000
C    -1.806000000    -0.188000000    -0.363000000
H    -2.517000000    -0.466000000     0.411000000
C    -2.374000000     0.297000000    -1.570000000
H    -3.447000000     0.288000000    -1.749000000
C    -1.616000000     0.542000000    -2.675000000
C    -2.161000000     1.004000000    -4.009000000
O    -3.362000000     1.206000000    -4.207000000
O    -1.381000000     1.171000000    -4.951000000
