14
-84.01450
C    -0.632000000     1.822000000    -2.402000000
H    -0.178000000     2.626000000    -2.976000000
C     0.038000000     1.259000000    -1.335000000
H     0.983000000     1.729000000    -1.078000000
C    -0.447000000     0.317000000    -0.460000000
H     0.075000000    -0.001000000     0.451000000
C    -1.709000000    -0.102000000    -0.731000000
H    -2.253000000    -0.775000000    -0.073000000
C    -2.422000000     0.322000000    -1.909000000
H    -3.432000000     0.013000000    -2.163000000
C    -1.859000000     1.363000000    -2.756000000
C    -2.525000000     1.935000000    -4.006000000
O    -3.671000000     1.589000000    -4.285000000
O    -2.034000000     2.872000000    -4.634000000
