14
-81.11731
C     0.045000000     0.563000000    -1.649000000
H     0.537000000     1.138000000    -2.430000000
C     0.767000000     0.020000000    -0.558000000
H     1.830000000     0.236000000    -0.492000000
C     0.155000000    -0.590000000     0.560000000
H     0.762000000    -0.798000000     1.462000000
C    -1.139000000    -0.942000000     0.376000000
H    -1.583000000    -1.575000000     1.141000000
C    -1.898000000    -0.486000000    -0.806000000
H    -2.946000000    -0.774000000    -0.841000000
C    -1.325000000     0.356000000    -1.739000000
C    -2.104000000     0.926000000    -2.864000000
O    -3.270000000     0.731000000    -2.942000000
O    -1.566000000     1.777000000    -3.556000000
