14
-83.05247
C    -2.215000000    -0.416000000    -1.783000000
H    -2.887000000    -0.704000000    -2.587000000
C    -0.884000000    -0.776000000    -1.745000000
H    -0.408000000    -1.188000000    -2.631000000
C    -0.126000000    -0.491000000    -0.600000000
H     0.984000000    -0.748000000    -0.604000000
C    -0.704000000     0.210000000     0.469000000
H    -0.103000000     0.524000000     1.319000000
C    -2.059000000     0.598000000     0.399000000
H    -2.446000000     1.166000000     1.241000000
C    -2.862000000     0.223000000    -0.709000000
C    -4.315000000     0.555000000    -0.831000000
O    -4.915000000     0.950000000     0.113000000
O    -4.947000000     0.376000000    -1.839000000
