14
-81.48772
C    -3.115000000     0.744000000    -1.612000000
H    -3.735000000     0.674000000    -2.502000000
C    -1.902000000     0.002000000    -1.497000000
H    -1.676000000    -0.718000000    -2.280000000
C    -0.961000000     0.161000000    -0.468000000
H    -0.051000000    -0.472000000    -0.381000000
C    -1.171000000     1.202000000     0.450000000
H    -0.477000000     1.437000000     1.253000000
C    -2.315000000     2.074000000     0.366000000
H    -2.333000000     2.850000000     1.128000000
C    -3.322000000     1.807000000    -0.664000000
C    -4.546000000     2.653000000    -0.833000000
O    -4.774000000     3.523000000    -0.054000000
O    -5.355000000     2.406000000    -1.715000000
