14
-84.98474
C    -1.349000000     1.903000000    -2.081000000
H    -1.191000000     2.593000000    -2.905000000
C    -0.320000000     1.042000000    -1.663000000
H     0.682000000     1.055000000    -2.084000000
C    -0.529000000     0.151000000    -0.611000000
H     0.315000000    -0.433000000    -0.294000000
C    -1.708000000     0.055000000    -0.013000000
H    -1.884000000    -0.679000000     0.770000000
C    -2.749000000     0.861000000    -0.465000000
H    -3.744000000     0.859000000    -0.027000000
C    -2.570000000     1.769000000    -1.509000000
C    -3.743000000     2.656000000    -1.987000000
O    -4.703000000     2.788000000    -1.304000000
O    -3.588000000     3.201000000    -3.032000000
