14
-82.74920
C    -1.815000000     0.317000000     0.445000000
H    -2.516000000    -0.336000000    -0.070000000
C    -0.463000000     0.006000000     0.482000000
H    -0.122000000    -0.948000000     0.087000000
C     0.497000000     0.844000000     0.886000000
H     1.563000000     0.450000000     0.842000000
C     0.195000000     2.121000000     1.314000000
H     0.957000000     2.808000000     1.676000000
C    -1.183000000     2.469000000     1.301000000
H    -1.480000000     3.439000000     1.691000000
C    -2.189000000     1.628000000     0.913000000
C    -3.577000000     2.188000000     0.887000000
O    -3.796000000     3.335000000     1.216000000
O    -4.442000000     1.578000000     0.288000000
