14
-93.47716
C    -0.889000000     2.782000000    -2.596000000
H    -0.471000000     2.957000000    -3.584000000
C    -0.028000000     2.628000000    -1.486000000
H     1.052000000     2.529000000    -1.561000000
C    -0.546000000     2.470000000    -0.186000000
H     0.221000000     2.407000000     0.654000000
C    -1.939000000     2.327000000     0.011000000
H    -2.359000000     2.098000000     0.987000000
C    -2.787000000     2.534000000    -1.108000000
H    -3.861000000     2.554000000    -0.944000000
C    -2.264000000     2.699000000    -2.404000000
C    -3.188000000     2.962000000    -3.581000000
O    -4.396000000     2.843000000    -3.390000000
O    -2.693000000     3.278000000    -4.641000000
