14
-87.26114
C     0.132000000     2.920000000    -2.065000000
H     0.705000000     3.407000000    -2.850000000
C     0.613000000     2.864000000    -0.751000000
H     1.575000000     3.284000000    -0.469000000
C    -0.170000000     2.391000000     0.303000000
H     0.211000000     2.416000000     1.281000000
C    -1.421000000     1.902000000     0.056000000
H    -2.067000000     1.458000000     0.810000000
C    -1.906000000     1.905000000    -1.256000000
H    -2.869000000     1.423000000    -1.405000000
C    -1.154000000     2.484000000    -2.339000000
C    -1.732000000     2.643000000    -3.737000000
O    -2.920000000     2.430000000    -3.980000000
O    -1.055000000     3.250000000    -4.508000000
