14
-87.80736
C    -0.064000000     2.984000000    -1.853000000
H     0.423000000     3.664000000    -2.548000000
C     0.589000000     2.639000000    -0.629000000
H     1.592000000     2.938000000    -0.337000000
C    -0.054000000     1.749000000     0.240000000
H     0.295000000     1.479000000     1.280000000
C    -1.282000000     1.255000000    -0.089000000
H    -1.672000000     0.557000000     0.647000000
C    -1.937000000     1.649000000    -1.247000000
H    -2.945000000     1.299000000    -1.454000000
C    -1.400000000     2.542000000    -2.132000000
C    -2.014000000     2.814000000    -3.515000000
O    -3.115000000     2.401000000    -3.751000000
O    -1.407000000     3.572000000    -4.283000000
