14
-88.62450
C     0.259000000     0.280000000    -2.050000000
H     0.542000000     0.307000000    -3.099000000
C     0.735000000    -0.752000000    -1.264000000
H     1.347000000    -1.554000000    -1.671000000
C     0.540000000    -0.739000000     0.099000000
H     0.948000000    -1.451000000     0.771000000
C    -0.327000000     0.228000000     0.654000000
H    -0.456000000     0.115000000     1.727000000
C    -0.911000000     1.174000000    -0.207000000
H    -1.625000000     1.865000000     0.234000000
C    -0.697000000     1.234000000    -1.568000000
C    -1.297000000     2.352000000    -2.442000000
O    -2.071000000     3.120000000    -1.979000000
O    -0.977000000     2.357000000    -3.636000000
