14
-87.34431
C    -0.130000000     1.309000000    -2.248000000
H     0.389000000     1.688000000    -3.125000000
C     0.457000000     0.552000000    -1.253000000
H     1.482000000     0.202000000    -1.346000000
C    -0.259000000     0.294000000    -0.049000000
H     0.064000000    -0.391000000     0.762000000
C    -1.559000000     0.814000000     0.087000000
H    -2.151000000     0.613000000     0.976000000
C    -2.072000000     1.662000000    -0.944000000
H    -3.029000000     2.160000000    -0.808000000
C    -1.411000000     1.800000000    -2.163000000
C    -1.989000000     2.593000000    -3.346000000
O    -2.986000000     3.236000000    -3.165000000
O    -1.393000000     2.652000000    -4.390000000
