14
-90.87981
C    -0.191000000     2.602000000    -0.914000000
H    -0.044000000     3.653000000    -1.151000000
C     0.816000000     1.887000000    -0.283000000
H     1.715000000     2.408000000     0.036000000
C     0.662000000     0.498000000    -0.014000000
H     1.528000000    -0.088000000     0.427000000
C    -0.515000000    -0.152000000    -0.379000000
H    -0.541000000    -1.230000000    -0.242000000
C    -1.460000000     0.495000000    -1.132000000
H    -2.271000000    -0.069000000    -1.586000000
C    -1.367000000     1.897000000    -1.245000000
C    -2.526000000     2.657000000    -1.930000000
O    -3.672000000     2.252000000    -1.736000000
O    -2.299000000     3.648000000    -2.597000000
