14
-81.00014
C    -0.364000000     2.115000000    -0.435000000
H     0.229000000     2.993000000    -0.677000000
C     0.239000000     0.877000000    -0.217000000
H     1.315000000     0.784000000    -0.335000000
C    -0.504000000    -0.133000000     0.400000000
H    -0.076000000    -1.107000000     0.576000000
C    -1.836000000     0.075000000     0.718000000
H    -2.317000000    -0.712000000     1.293000000
C    -2.483000000     1.234000000     0.291000000
H    -3.568000000     1.305000000     0.299000000
C    -1.774000000     2.301000000    -0.269000000
C    -2.482000000     3.562000000    -0.726000000
O    -3.722000000     3.591000000    -0.698000000
O    -2.030000000     4.476000000    -1.385000000
