14
-85.12923
C    -0.656000000     1.771000000    -1.530000000
H    -0.473000000     2.506000000    -2.310000000
C     0.359000000     0.963000000    -1.011000000
H     1.417000000     1.153000000    -1.175000000
C     0.051000000    -0.112000000    -0.272000000
H     0.801000000    -0.814000000     0.094000000
C    -1.287000000    -0.365000000     0.039000000
H    -1.534000000    -1.152000000     0.747000000
C    -2.320000000     0.500000000    -0.350000000
H    -3.368000000     0.250000000    -0.205000000
C    -2.015000000     1.551000000    -1.224000000
C    -3.096000000     2.577000000    -1.504000000
O    -4.207000000     2.413000000    -1.091000000
O    -2.731000000     3.584000000    -2.044000000
