14
-89.72224
C    -0.266000000     1.030000000    -2.414000000
H     0.230000000     1.016000000    -3.382000000
C     0.421000000     0.713000000    -1.248000000
H     1.450000000     0.402000000    -1.407000000
C    -0.235000000     0.858000000     0.016000000
H     0.354000000     0.672000000     0.970000000
C    -1.595000000     1.078000000     0.089000000
H    -2.152000000     1.013000000     1.020000000
C    -2.262000000     1.440000000    -1.086000000
H    -3.295000000     1.774000000    -1.024000000
C    -1.621000000     1.447000000    -2.318000000
C    -2.282000000     2.010000000    -3.546000000
O    -3.397000000     2.508000000    -3.535000000
O    -1.606000000     2.105000000    -4.565000000
