14
-87.13341
C    -0.260000000     0.634000000    -2.324000000
H    -0.059000000     0.913000000    -3.355000000
C     0.734000000     0.342000000    -1.411000000
H     1.774000000     0.454000000    -1.707000000
C     0.375000000    -0.227000000    -0.214000000
H     1.121000000    -0.809000000     0.352000000
C    -0.972000000    -0.195000000     0.183000000
H    -1.272000000    -0.509000000     1.179000000
C    -1.947000000     0.307000000    -0.676000000
H    -2.970000000     0.392000000    -0.320000000
C    -1.583000000     0.762000000    -1.928000000
C    -2.653000000     1.285000000    -2.853000000
O    -3.670000000     1.729000000    -2.352000000
O    -2.428000000     1.438000000    -4.025000000
