14
-82.28632
C    -0.092000000     0.499000000    -2.302000000
H     0.223000000    -0.035000000    -3.196000000
C     0.056000000     0.017000000    -1.009000000
H     0.554000000    -0.948000000    -0.950000000
C    -0.477000000     0.702000000     0.117000000
H    -0.386000000     0.311000000     1.162000000
C    -1.196000000     1.835000000    -0.090000000
H    -1.718000000     2.308000000     0.736000000
C    -1.249000000     2.445000000    -1.327000000
H    -1.710000000     3.426000000    -1.417000000
C    -0.757000000     1.726000000    -2.445000000
C    -0.811000000     2.488000000    -3.722000000
O    -1.535000000     3.444000000    -3.839000000
O    -0.156000000     2.129000000    -4.640000000
