14
-87.03818
C     0.893000000     1.182000000    -1.487000000
H     1.759000000     1.621000000    -1.975000000
C     1.062000000     0.187000000    -0.523000000
H     2.049000000    -0.209000000    -0.300000000
C     0.024000000    -0.320000000     0.196000000
H     0.257000000    -1.139000000     0.950000000
C    -1.275000000     0.105000000    -0.039000000
H    -2.006000000    -0.228000000     0.693000000
C    -1.526000000     1.025000000    -1.034000000
H    -2.545000000     1.349000000    -1.229000000
C    -0.430000000     1.552000000    -1.796000000
C    -0.662000000     2.590000000    -2.897000000
O    -1.777000000     3.057000000    -3.014000000
O     0.180000000     2.806000000    -3.708000000
