14
-84.50647
C     0.459000000     1.248000000    -2.414000000
H     0.850000000     1.539000000    -3.386000000
C     1.341000000     0.382000000    -1.792000000
H     2.365000000     0.291000000    -2.148000000
C     0.930000000    -0.221000000    -0.581000000
H     1.557000000    -0.940000000     0.025000000
C    -0.353000000     0.072000000    -0.085000000
H    -0.719000000    -0.418000000     0.813000000
C    -1.219000000     0.871000000    -0.746000000
H    -2.182000000     1.057000000    -0.277000000
C    -0.840000000     1.548000000    -1.947000000
C    -1.726000000     2.492000000    -2.688000000
O    -2.881000000     2.652000000    -2.422000000
O    -1.205000000     3.254000000    -3.543000000
