14
-82.89281
C     0.476000000     0.989000000    -1.841000000
H     1.264000000     0.880000000    -2.582000000
C     0.447000000     0.021000000    -0.900000000
H     1.096000000    -0.851000000    -0.879000000
C    -0.464000000     0.068000000     0.159000000
H    -0.489000000    -0.665000000     1.030000000
C    -1.415000000     1.077000000     0.164000000
H    -2.188000000     1.198000000     0.919000000
C    -1.436000000     2.039000000    -0.846000000
H    -2.151000000     2.858000000    -0.847000000
C    -0.472000000     1.987000000    -1.853000000
C    -0.301000000     3.106000000    -2.861000000
O    -1.105000000     3.967000000    -2.927000000
O     0.824000000     3.301000000    -3.361000000
