14
-81.32941
C     1.459000000     2.006000000    -1.549000000
H     2.446000000     2.119000000    -1.990000000
C     1.399000000     1.299000000    -0.339000000
H     2.356000000     0.988000000     0.070000000
C     0.178000000     0.871000000     0.205000000
H     0.144000000     0.209000000     1.103000000
C    -1.025000000     1.340000000    -0.338000000
H    -1.971000000     1.105000000     0.141000000
C    -1.009000000     2.222000000    -1.430000000
H    -1.923000000     2.536000000    -1.928000000
C     0.255000000     2.514000000    -2.039000000
C     0.293000000     3.565000000    -3.080000000
O    -0.731000000     4.151000000    -3.374000000
O     1.282000000     3.879000000    -3.644000000
