14
-88.98187
C     0.254000000     1.415000000    -1.853000000
H     0.926000000     1.603000000    -2.687000000
C     0.514000000     0.313000000    -1.046000000
H     1.466000000    -0.192000000    -1.191000000
C    -0.425000000    -0.051000000    -0.075000000
H    -0.221000000    -0.900000000     0.498000000
C    -1.592000000     0.606000000     0.052000000
H    -2.321000000     0.260000000     0.781000000
C    -1.868000000     1.743000000    -0.718000000
H    -2.799000000     2.292000000    -0.600000000
C    -1.017000000     2.085000000    -1.784000000
C    -1.378000000     3.187000000    -2.682000000
O    -2.499000000     3.744000000    -2.601000000
O    -0.582000000     3.611000000    -3.518000000
