14
-85.53854
C     1.214000000     0.855000000    -1.066000000
H     2.160000000     1.041000000    -1.570000000
C     1.107000000    -0.137000000    -0.140000000
H     1.917000000    -0.800000000     0.153000000
C    -0.109000000    -0.305000000     0.540000000
H    -0.250000000    -1.145000000     1.239000000
C    -1.242000000     0.390000000     0.191000000
H    -2.219000000     0.142000000     0.598000000
C    -1.240000000     1.311000000    -0.843000000
H    -2.174000000     1.682000000    -1.259000000
C    -0.010000000     1.560000000    -1.470000000
C    -0.011000000     2.572000000    -2.598000000
O    -1.043000000     3.173000000    -2.910000000
O     0.940000000     2.636000000    -3.344000000
