14
-90.22934
C     0.406000000     1.273000000    -2.204000000
H     1.202000000     1.449000000    -2.923000000
C     0.528000000     0.481000000    -1.140000000
H     1.419000000    -0.108000000    -0.938000000
C    -0.554000000     0.226000000    -0.244000000
H    -0.431000000    -0.466000000     0.566000000
C    -1.754000000     0.940000000    -0.389000000
H    -2.548000000     0.836000000     0.346000000
C    -1.892000000     1.772000000    -1.462000000
H    -2.826000000     2.280000000    -1.689000000
C    -0.809000000     2.033000000    -2.370000000
C    -0.897000000     3.052000000    -3.453000000
O    -1.861000000     3.832000000    -3.502000000
O    -0.008000000     3.057000000    -4.283000000
