14
-87.07205
C     0.754000000     1.363000000    -1.880000000
H     1.260000000     1.795000000    -2.740000000
C     1.370000000     0.455000000    -1.029000000
H     2.444000000     0.311000000    -0.944000000
C     0.607000000    -0.238000000    -0.124000000
H     1.073000000    -0.982000000     0.536000000
C    -0.773000000    -0.083000000    -0.017000000
H    -1.188000000    -0.746000000     0.738000000
C    -1.396000000     0.847000000    -0.906000000
H    -2.471000000     1.010000000    -0.935000000
C    -0.659000000     1.537000000    -1.856000000
C    -1.309000000     2.537000000    -2.800000000
O    -2.487000000     2.693000000    -2.809000000
O    -0.526000000     3.293000000    -3.371000000
