14
-83.47445
C     0.404000000     1.700000000    -1.584000000
H     0.896000000     2.447000000    -2.201000000
C     1.229000000     0.877000000    -0.757000000
H     2.314000000     0.920000000    -0.806000000
C     0.669000000    -0.044000000     0.080000000
H     1.216000000    -0.626000000     0.769000000
C    -0.728000000    -0.150000000     0.181000000
H    -1.235000000    -0.793000000     0.897000000
C    -1.544000000     0.593000000    -0.674000000
H    -2.622000000     0.460000000    -0.633000000
C    -0.987000000     1.548000000    -1.557000000
C    -1.873000000     2.378000000    -2.442000000
O    -2.937000000     1.990000000    -2.964000000
O    -1.749000000     3.572000000    -2.435000000
