14
-87.45040
C     0.642000000     1.889000000    -1.604000000
H     1.525000000     2.292000000    -2.093000000
C     0.855000000     0.783000000    -0.734000000
H     1.843000000     0.361000000    -0.569000000
C    -0.274000000     0.255000000    -0.087000000
H    -0.209000000    -0.516000000     0.584000000
C    -1.549000000     0.806000000    -0.186000000
H    -2.429000000     0.348000000     0.258000000
C    -1.709000000     1.903000000    -1.061000000
H    -2.714000000     2.274000000    -1.243000000
C    -0.661000000     2.445000000    -1.855000000
C    -0.990000000     3.607000000    -2.846000000
O    -2.130000000     4.063000000    -2.905000000
O    -0.113000000     4.119000000    -3.514000000
