14
-88.62953
C    -0.047000000     2.423000000     0.292000000
H     0.757000000     3.152000000     0.341000000
C     0.205000000     0.988000000     0.305000000
H     1.206000000     0.564000000     0.293000000
C    -0.824000000     0.121000000     0.324000000
H    -0.716000000    -0.962000000     0.426000000
C    -2.168000000     0.575000000     0.081000000
H    -3.003000000    -0.120000000     0.043000000
C    -2.415000000     1.916000000     0.114000000
H    -3.419000000     2.322000000     0.024000000
C    -1.354000000     2.868000000     0.126000000
C    -1.659000000     4.318000000     0.003000000
O    -2.759000000     4.659000000    -0.395000000
O    -0.793000000     5.153000000     0.206000000
