14
-82.33386
C     0.053000000     1.507000000    -1.307000000
H     0.893000000     1.718000000    -1.965000000
C     0.073000000     0.320000000    -0.518000000
H     0.925000000    -0.355000000    -0.515000000
C    -1.023000000     0.051000000     0.319000000
H    -0.933000000    -0.831000000     0.986000000
C    -2.112000000     0.934000000     0.299000000
H    -2.950000000     0.597000000     0.904000000
C    -2.153000000     2.070000000    -0.551000000
H    -3.032000000     2.709000000    -0.507000000
C    -1.044000000     2.392000000    -1.315000000
C    -0.966000000     3.605000000    -2.078000000
O    -1.821000000     4.471000000    -2.004000000
O    -0.177000000     3.745000000    -2.994000000
