14
-79.00215
C     0.411000000     2.368000000    -1.184000000
H     1.004000000     3.170000000    -1.616000000
C     1.150000000     1.305000000    -0.715000000
H     2.237000000     1.325000000    -0.741000000
C     0.541000000     0.178000000    -0.181000000
H     1.167000000    -0.518000000     0.234000000
C    -0.822000000     0.088000000    -0.241000000
H    -1.308000000    -0.780000000     0.197000000
C    -1.590000000     1.154000000    -0.625000000
H    -2.671000000     1.049000000    -0.599000000
C    -0.956000000     2.323000000    -1.102000000
C    -1.731000000     3.485000000    -1.604000000
O    -2.906000000     3.482000000    -1.674000000
O    -1.174000000     4.525000000    -1.925000000
