14
-87.89402
C     0.127000000     1.841000000    -1.448000000
H     1.025000000     2.270000000    -1.886000000
C     0.222000000     0.762000000    -0.560000000
H     1.147000000     0.240000000    -0.330000000
C    -0.946000000     0.244000000     0.085000000
H    -0.875000000    -0.478000000     0.857000000
C    -2.142000000     0.713000000    -0.290000000
H    -2.991000000     0.224000000     0.181000000
C    -2.270000000     1.721000000    -1.258000000
H    -3.256000000     1.975000000    -1.638000000
C    -1.119000000     2.363000000    -1.758000000
C    -1.270000000     3.512000000    -2.819000000
O    -2.444000000     3.887000000    -3.089000000
O    -0.335000000     4.002000000    -3.344000000
