14
-88.43075
C    -1.252000000     0.102000000    -2.125000000
H    -2.310000000     0.056000000    -2.370000000
C    -0.884000000    -0.297000000    -0.818000000
H    -1.595000000    -0.598000000    -0.053000000
C     0.469000000    -0.332000000    -0.517000000
H     0.798000000    -0.706000000     0.446000000
C     1.487000000     0.066000000    -1.375000000
H     2.534000000     0.156000000    -1.099000000
C     1.142000000     0.499000000    -2.636000000
H     1.865000000     0.913000000    -3.334000000
C    -0.229000000     0.480000000    -3.012000000
C    -0.566000000     0.938000000    -4.415000000
O     0.193000000     0.667000000    -5.316000000
O    -1.702000000     1.298000000    -4.631000000
