14
-80.48751
C     0.374000000     2.125000000    -1.238000000
H     0.800000000     2.935000000    -1.824000000
C     1.221000000     1.134000000    -0.881000000
H     2.242000000     1.174000000    -1.251000000
C     0.781000000    -0.031000000    -0.186000000
H     1.462000000    -0.875000000     0.052000000
C    -0.562000000    -0.095000000     0.111000000
H    -0.839000000    -0.999000000     0.646000000
C    -1.425000000     1.006000000    -0.141000000
H    -2.487000000     0.869000000     0.046000000
C    -0.918000000     2.155000000    -0.806000000
C    -1.835000000     3.274000000    -1.279000000
O    -3.003000000     2.974000000    -1.573000000
O    -1.419000000     4.306000000    -1.689000000
