14
-89.00132
C    -0.101000000     2.565000000    -1.099000000
H     0.163000000     3.522000000    -1.541000000
C     0.860000000     1.586000000    -0.805000000
H     1.876000000     1.680000000    -1.180000000
C     0.515000000     0.452000000    -0.093000000
H     1.283000000    -0.242000000     0.180000000
C    -0.810000000     0.255000000     0.268000000
H    -1.131000000    -0.681000000     0.717000000
C    -1.782000000     1.231000000     0.038000000
H    -2.742000000     1.094000000     0.529000000
C    -1.391000000     2.472000000    -0.512000000
C    -2.368000000     3.554000000    -0.619000000
O    -3.542000000     3.461000000    -0.294000000
O    -1.922000000     4.654000000    -0.987000000
