14
-88.73434
C    -0.446000000     2.094000000    -0.496000000
H     0.059000000     2.972000000    -0.890000000
C     0.398000000     1.075000000    -0.144000000
H     1.480000000     1.159000000    -0.211000000
C    -0.143000000    -0.151000000     0.346000000
H     0.559000000    -0.975000000     0.678000000
C    -1.547000000    -0.262000000     0.486000000
H    -1.924000000    -1.196000000     0.894000000
C    -2.386000000     0.756000000     0.060000000
H    -3.462000000     0.651000000     0.176000000
C    -1.829000000     1.945000000    -0.396000000
C    -2.772000000     3.142000000    -0.584000000
O    -4.004000000     2.997000000    -0.722000000
O    -2.256000000     4.195000000    -0.806000000
