14
-91.30618
C     0.305000000     1.936000000    -0.640000000
H     0.638000000     2.917000000    -0.969000000
C     1.211000000     0.849000000    -0.559000000
H     2.258000000     1.021000000    -0.795000000
C     0.858000000    -0.378000000     0.036000000
H     1.584000000    -1.164000000     0.085000000
C    -0.447000000    -0.601000000     0.359000000
H    -0.725000000    -1.554000000     0.801000000
C    -1.407000000     0.471000000     0.299000000
H    -2.402000000     0.321000000     0.710000000
C    -0.970000000     1.797000000    -0.111000000
C    -1.991000000     2.948000000    -0.063000000
O    -3.196000000     2.709000000     0.060000000
O    -1.515000000     4.063000000    -0.220000000
