14
-86.33842
C    -1.569000000     1.535000000    -2.163000000
H    -2.610000000     1.814000000    -2.308000000
C    -1.249000000     0.620000000    -1.142000000
H    -2.058000000     0.297000000    -0.492000000
C     0.114000000     0.497000000    -0.775000000
H     0.407000000    -0.092000000     0.126000000
C     1.103000000     1.114000000    -1.570000000
H     2.119000000     1.061000000    -1.187000000
C     0.761000000     1.871000000    -2.730000000
H     1.562000000     2.264000000    -3.351000000
C    -0.581000000     2.141000000    -2.975000000
C    -0.889000000     2.926000000    -4.250000000
O     0.044000000     3.404000000    -4.843000000
O    -2.020000000     3.071000000    -4.767000000
