14
-87.21828
C     0.089000000     2.484000000    -0.948000000
H     0.610000000     3.236000000    -1.535000000
C     0.521000000     1.191000000    -0.888000000
H     1.451000000     0.986000000    -1.414000000
C    -0.164000000     0.236000000    -0.112000000
H     0.253000000    -0.742000000    -0.150000000
C    -1.278000000     0.632000000     0.622000000
H    -1.937000000    -0.136000000     1.020000000
C    -1.670000000     1.969000000     0.644000000
H    -2.574000000     2.271000000     1.165000000
C    -0.898000000     2.934000000    -0.095000000
C    -1.413000000     4.314000000    -0.234000000
O    -2.335000000     4.673000000     0.452000000
O    -0.863000000     5.034000000    -1.049000000
