14
-80.06883
C     0.075000000     1.699000000    -1.296000000
H     0.539000000     2.366000000    -2.018000000
C     0.638000000     0.586000000    -0.727000000
H     1.647000000     0.295000000    -1.007000000
C    -0.026000000    -0.152000000     0.274000000
H     0.387000000    -0.965000000     0.728000000
C    -1.356000000     0.253000000     0.625000000
H    -1.916000000    -0.336000000     1.347000000
C    -1.985000000     1.342000000     0.029000000
H    -3.041000000     1.457000000     0.259000000
C    -1.262000000     2.103000000    -0.893000000
C    -1.952000000     3.148000000    -1.692000000
O    -3.160000000     3.114000000    -1.812000000
O    -1.329000000     3.910000000    -2.322000000
