14
-82.20566
C    -0.047000000     1.580000000    -1.160000000
H     0.720000000     2.176000000    -1.648000000
C     0.343000000     0.488000000    -0.337000000
H     1.395000000     0.234000000    -0.242000000
C    -0.640000000    -0.078000000     0.555000000
H    -0.345000000    -0.868000000     1.299000000
C    -1.979000000     0.165000000     0.282000000
H    -2.732000000    -0.430000000     0.793000000
C    -2.341000000     1.137000000    -0.615000000
H    -3.382000000     1.442000000    -0.686000000
C    -1.369000000     1.930000000    -1.313000000
C    -1.878000000     2.899000000    -2.364000000
O    -2.969000000     3.382000000    -2.368000000
O    -0.993000000     3.405000000    -3.061000000
