14
-84.58576
C    -0.590000000     1.327000000    -1.984000000
H    -0.554000000     1.885000000    -2.916000000
C     0.479000000     0.479000000    -1.673000000
H     1.201000000     0.224000000    -2.444000000
C     0.531000000    -0.113000000    -0.428000000
H     1.389000000    -0.786000000    -0.219000000
C    -0.459000000     0.145000000     0.468000000
H    -0.356000000    -0.418000000     1.393000000
C    -1.519000000     0.908000000     0.157000000
H    -2.239000000     1.089000000     0.950000000
C    -1.537000000     1.680000000    -1.021000000
C    -2.457000000     2.827000000    -1.318000000
O    -3.524000000     2.901000000    -0.742000000
O    -2.163000000     3.606000000    -2.191000000
