14
-83.19885
C     0.103000000     1.692000000    -1.798000000
H     0.491000000     2.127000000    -2.715000000
C     0.734000000     0.617000000    -1.220000000
H     1.685000000     0.290000000    -1.632000000
C     0.178000000     0.001000000    -0.060000000
H     0.668000000    -0.832000000     0.335000000
C    -1.088000000     0.342000000     0.352000000
H    -1.500000000    -0.196000000     1.202000000
C    -1.780000000     1.352000000    -0.314000000
H    -2.817000000     1.533000000    -0.042000000
C    -1.177000000     2.096000000    -1.330000000
C    -1.981000000     2.981000000    -2.246000000
O    -3.179000000     3.104000000    -2.092000000
O    -1.471000000     3.546000000    -3.150000000
