14
-90.52396
C    -0.441000000     0.381000000    -2.497000000
H     0.022000000     0.453000000    -3.478000000
C     0.394000000     0.311000000    -1.358000000
H     1.468000000     0.460000000    -1.435000000
C    -0.179000000     0.237000000    -0.058000000
H     0.417000000     0.447000000     0.843000000
C    -1.511000000     0.228000000     0.064000000
H    -1.961000000     0.083000000     1.042000000
C    -2.378000000     0.259000000    -1.044000000
H    -3.445000000     0.384000000    -0.881000000
C    -1.831000000     0.378000000    -2.366000000
C    -2.728000000     0.563000000    -3.587000000
O    -3.915000000     0.272000000    -3.517000000
O    -2.225000000     1.191000000    -4.551000000
