14
-78.32885
C    -0.278000000     1.618000000    -2.148000000
H     0.278000000     1.962000000    -3.016000000
C     0.309000000     0.581000000    -1.407000000
H     1.321000000     0.259000000    -1.639000000
C    -0.463000000    -0.070000000    -0.447000000
H    -0.001000000    -0.951000000     0.176000000
C    -1.759000000     0.239000000    -0.250000000
H    -2.256000000    -0.371000000     0.501000000
C    -2.404000000     1.166000000    -1.130000000
H    -3.484000000     1.283000000    -1.175000000
C    -1.617000000     1.893000000    -2.066000000
C    -2.422000000     2.599000000    -3.141000000
O    -3.606000000     2.521000000    -3.078000000
O    -1.875000000     3.486000000    -3.814000000
