14
-86.00677
C    -0.423000000    -0.026000000    -2.562000000
H    -0.529000000    -0.044000000    -3.644000000
C     0.782000000     0.159000000    -1.988000000
H     1.726000000     0.192000000    -2.524000000
C     0.982000000     0.224000000    -0.648000000
H     1.972000000     0.053000000    -0.192000000
C    -0.144000000     0.258000000     0.169000000
H    -0.008000000     0.352000000     1.243000000
C    -1.399000000     0.198000000    -0.386000000
H    -2.307000000     0.168000000     0.212000000
C    -1.621000000     0.000000000    -1.752000000
C    -2.960000000    -0.055000000    -2.436000000
O    -3.998000000     0.187000000    -1.852000000
O    -2.949000000    -0.376000000    -3.616000000
