14
-82.91441
C    -1.523000000     0.561000000    -2.487000000
H    -1.706000000     0.815000000    -3.527000000
C    -0.303000000     0.290000000    -2.023000000
H     0.551000000     0.200000000    -2.689000000
C    -0.124000000     0.146000000    -0.620000000
H     0.894000000    -0.088000000    -0.376000000
C    -1.176000000     0.141000000     0.319000000
H    -0.998000000     0.013000000     1.384000000
C    -2.405000000     0.464000000    -0.253000000
H    -3.304000000     0.586000000     0.345000000
C    -2.625000000     0.615000000    -1.626000000
C    -3.992000000     1.121000000    -2.125000000
O    -4.826000000     1.733000000    -1.447000000
O    -4.292000000     0.839000000    -3.247000000
