14
-83.48867
C    -1.140000000     0.305000000    -2.247000000
H    -1.277000000     0.419000000    -3.319000000
C     0.141000000     0.285000000    -1.640000000
H     1.047000000     0.507000000    -2.198000000
C     0.234000000     0.127000000    -0.294000000
H     1.241000000     0.099000000     0.135000000
C    -0.899000000    -0.188000000     0.494000000
H    -0.814000000    -0.445000000     1.547000000
C    -2.129000000    -0.057000000    -0.116000000
H    -2.969000000     0.129000000     0.549000000
C    -2.313000000     0.192000000    -1.458000000
C    -3.724000000     0.400000000    -1.970000000
O    -4.603000000     0.717000000    -1.185000000
O    -3.968000000     0.484000000    -3.148000000
