14
-88.64224
C    -1.002000000     0.254000000    -2.162000000
H    -0.757000000     0.323000000    -3.219000000
C     0.048000000     0.068000000    -1.211000000
H     1.085000000     0.018000000    -1.534000000
C    -0.294000000    -0.052000000     0.156000000
H     0.442000000    -0.203000000     0.875000000
C    -1.620000000     0.034000000     0.558000000
H    -1.951000000    -0.078000000     1.587000000
C    -2.614000000     0.269000000    -0.414000000
H    -3.647000000     0.264000000    -0.076000000
C    -2.333000000     0.450000000    -1.713000000
C    -3.426000000     0.840000000    -2.716000000
O    -4.500000000     1.219000000    -2.242000000
O    -3.208000000     0.938000000    -3.879000000
