14
-92.59821
C    -0.745000000     0.214000000    -2.424000000
H    -0.399000000     0.417000000    -3.435000000
C     0.149000000     0.202000000    -1.374000000
H     1.183000000     0.482000000    -1.558000000
C    -0.232000000    -0.151000000    -0.086000000
H     0.431000000    -0.018000000     0.745000000
C    -1.569000000    -0.445000000     0.156000000
H    -1.859000000    -0.551000000     1.198000000
C    -2.501000000    -0.479000000    -0.854000000
H    -3.513000000    -0.822000000    -0.656000000
C    -2.088000000    -0.117000000    -2.193000000
C    -3.080000000    -0.096000000    -3.411000000
O    -4.287000000    -0.223000000    -3.150000000
O    -2.705000000     0.193000000    -4.561000000
