14
-80.19860
C    -1.667000000     0.321000000    -1.930000000
H    -2.647000000     0.108000000    -2.350000000
C    -1.255000000    -0.236000000    -0.703000000
H    -1.941000000    -0.901000000    -0.185000000
C     0.021000000    -0.074000000    -0.207000000
H     0.396000000    -0.687000000     0.651000000
C     0.891000000     0.743000000    -0.920000000
H     1.897000000     0.978000000    -0.579000000
C     0.460000000     1.492000000    -2.051000000
H     1.084000000     2.280000000    -2.464000000
C    -0.864000000     1.275000000    -2.551000000
C    -1.258000000     2.014000000    -3.837000000
O    -0.524000000     2.809000000    -4.391000000
O    -2.162000000     1.633000000    -4.525000000
