14
-84.43633
C    -0.670000000     0.449000000    -2.455000000
H    -0.438000000     0.601000000    -3.506000000
C     0.392000000     0.670000000    -1.517000000
H     1.309000000     0.993000000    -2.005000000
C     0.394000000     0.430000000    -0.181000000
H     1.201000000     0.736000000     0.419000000
C    -0.828000000    -0.057000000     0.305000000
H    -0.856000000    -0.156000000     1.387000000
C    -1.872000000    -0.365000000    -0.559000000
H    -2.773000000    -0.795000000    -0.127000000
C    -1.857000000    -0.072000000    -1.962000000
C    -3.097000000    -0.308000000    -2.809000000
O    -4.109000000    -0.748000000    -2.341000000
O    -3.063000000     0.102000000    -3.944000000
