14
-82.71803
C    -1.208000000    -0.010000000    -2.664000000
H    -0.933000000     0.240000000    -3.685000000
C    -0.262000000     0.181000000    -1.642000000
H     0.757000000     0.475000000    -1.881000000
C    -0.573000000    -0.201000000    -0.315000000
H     0.156000000    -0.109000000     0.428000000
C    -1.848000000    -0.682000000    -0.013000000
H    -1.988000000    -0.855000000     1.051000000
C    -2.799000000    -0.790000000    -1.106000000
H    -3.842000000    -1.083000000    -1.021000000
C    -2.478000000    -0.482000000    -2.381000000
C    -3.553000000    -0.612000000    -3.450000000
O    -4.622000000    -1.032000000    -3.176000000
O    -3.295000000    -0.266000000    -4.577000000
