14
-92.17569
C    -0.892000000     1.394000000    -1.933000000
H    -0.534000000     1.787000000    -2.881000000
C     0.048000000     0.956000000    -0.970000000
H     1.109000000     0.952000000    -1.204000000
C    -0.355000000     0.400000000     0.255000000
H     0.393000000    -0.038000000     0.934000000
C    -1.705000000     0.207000000     0.449000000
H    -2.108000000    -0.243000000     1.353000000
C    -2.622000000     0.573000000    -0.551000000
H    -3.657000000     0.326000000    -0.331000000
C    -2.278000000     1.129000000    -1.756000000
C    -3.332000000     1.323000000    -2.886000000
O    -4.455000000     0.863000000    -2.673000000
O    -3.004000000     1.759000000    -3.975000000
