14
-78.90192
C    -1.007000000     0.747000000    -2.524000000
H    -0.940000000     0.942000000    -3.591000000
C     0.163000000     0.382000000    -1.865000000
H     1.114000000     0.584000000    -2.353000000
C     0.030000000    -0.181000000    -0.518000000
H     0.952000000    -0.511000000     0.066000000
C    -1.190000000    -0.427000000     0.030000000
H    -1.419000000    -0.854000000     1.003000000
C    -2.318000000     0.026000000    -0.636000000
H    -3.286000000    -0.241000000    -0.221000000
C    -2.251000000     0.597000000    -1.891000000
C    -3.511000000     1.040000000    -2.606000000
O    -4.608000000     1.131000000    -2.012000000
O    -3.489000000     1.683000000    -3.651000000
