14
-88.98397
C    -0.804000000     0.671000000    -2.144000000
H    -0.921000000     0.989000000    -3.176000000
C     0.492000000     0.388000000    -1.694000000
H     1.335000000     0.593000000    -2.348000000
C     0.757000000    -0.023000000    -0.389000000
H     1.824000000    -0.207000000    -0.067000000
C    -0.342000000    -0.184000000     0.440000000
H    -0.125000000    -0.610000000     1.416000000
C    -1.644000000     0.018000000     0.033000000
H    -2.441000000    -0.156000000     0.752000000
C    -1.882000000     0.506000000    -1.252000000
C    -3.298000000     0.795000000    -1.762000000
O    -4.272000000     0.421000000    -1.169000000
O    -3.436000000     1.423000000    -2.789000000
