14
-85.48963
C    -0.176000000     0.889000000    -1.357000000
H     0.274000000     1.719000000    -1.896000000
C     0.419000000     0.351000000    -0.226000000
H     1.281000000     0.833000000     0.228000000
C    -0.147000000    -0.714000000     0.454000000
H     0.240000000    -1.196000000     1.273000000
C    -1.214000000    -1.329000000    -0.101000000
H    -1.667000000    -2.208000000     0.352000000
C    -1.762000000    -0.841000000    -1.275000000
H    -2.662000000    -1.294000000    -1.683000000
C    -1.229000000     0.255000000    -1.973000000
C    -1.840000000     0.944000000    -3.233000000
O    -2.804000000     0.465000000    -3.758000000
O    -1.325000000     1.956000000    -3.703000000
