14
-90.96732
C    -0.883000000     0.924000000    -1.757000000
H    -0.601000000     1.389000000    -2.698000000
C     0.135000000     0.916000000    -0.774000000
H     1.105000000     1.348000000    -1.002000000
C    -0.163000000     0.210000000     0.400000000
H     0.594000000     0.057000000     1.152000000
C    -1.412000000    -0.480000000     0.599000000
H    -1.651000000    -0.943000000     1.553000000
C    -2.347000000    -0.371000000    -0.362000000
H    -3.296000000    -0.879000000    -0.207000000
C    -2.142000000     0.335000000    -1.573000000
C    -3.106000000     0.279000000    -2.695000000
O    -4.023000000    -0.520000000    -2.647000000
O    -2.936000000     1.069000000    -3.641000000
