14
-81.25165
C    -0.902000000     1.101000000    -2.740000000
H    -1.862000000     1.063000000    -3.246000000
C    -0.796000000     0.344000000    -1.624000000
H    -1.610000000    -0.303000000    -1.309000000
C     0.398000000     0.260000000    -0.906000000
H     0.495000000    -0.489000000    -0.102000000
C     1.379000000     1.252000000    -1.129000000
H     2.040000000     1.601000000    -0.339000000
C     1.246000000     2.063000000    -2.253000000
H     1.866000000     2.939000000    -2.429000000
C     0.115000000     1.996000000    -3.138000000
C    -0.114000000     2.865000000    -4.309000000
O     0.712000000     3.751000000    -4.476000000
O    -0.996000000     2.729000000    -5.190000000
