14
-85.76015
C    -0.748000000     1.574000000    -1.846000000
H    -0.548000000     2.129000000    -2.758000000
C     0.366000000     1.102000000    -1.162000000
H     1.366000000     1.399000000    -1.471000000
C     0.171000000     0.317000000    -0.032000000
H     1.105000000    -0.089000000     0.400000000
C    -1.108000000     0.006000000     0.443000000
H    -1.151000000    -0.718000000     1.252000000
C    -2.261000000     0.471000000    -0.222000000
H    -3.240000000     0.063000000     0.016000000
C    -2.066000000     1.321000000    -1.315000000
C    -3.233000000     1.794000000    -2.139000000
O    -4.321000000     1.313000000    -2.012000000
O    -3.056000000     2.578000000    -3.070000000
