14
-86.26122
C    -0.266000000     0.666000000    -2.232000000
H     0.022000000     1.117000000    -3.178000000
C     0.644000000     0.394000000    -1.210000000
H     1.682000000     0.712000000    -1.279000000
C     0.277000000    -0.277000000    -0.067000000
H     1.065000000    -0.443000000     0.651000000
C    -0.982000000    -0.753000000     0.024000000
H    -1.268000000    -1.416000000     0.837000000
C    -1.938000000    -0.447000000    -0.930000000
H    -2.942000000    -0.855000000    -0.856000000
C    -1.584000000     0.272000000    -2.069000000
C    -2.574000000     0.506000000    -3.238000000
O    -3.720000000     0.756000000    -3.007000000
O    -2.038000000     0.814000000    -4.291000000
