14
-88.27673
C     0.187000000     1.025000000    -1.271000000
H     0.758000000     1.744000000    -1.852000000
C     0.589000000     0.679000000     0.026000000
H     1.352000000     1.214000000     0.586000000
C    -0.062000000    -0.309000000     0.780000000
H     0.427000000    -0.628000000     1.732000000
C    -1.176000000    -0.981000000     0.256000000
H    -1.681000000    -1.696000000     0.900000000
C    -1.659000000    -0.584000000    -0.994000000
H    -2.591000000    -1.015000000    -1.353000000
C    -0.910000000     0.312000000    -1.785000000
C    -1.451000000     0.666000000    -3.139000000
O    -2.367000000     0.007000000    -3.664000000
O    -1.103000000     1.663000000    -3.750000000
