14
-81.03206
C    -0.444000000     1.664000000    -1.979000000
H    -0.172000000     2.392000000    -2.739000000
C     0.468000000     1.126000000    -1.077000000
H     1.517000000     1.405000000    -1.127000000
C     0.103000000     0.236000000    -0.034000000
H     0.834000000    -0.155000000     0.663000000
C    -1.204000000    -0.202000000     0.074000000
H    -1.504000000    -0.912000000     0.840000000
C    -2.149000000     0.344000000    -0.885000000
H    -3.167000000    -0.029000000    -0.819000000
C    -1.773000000     1.298000000    -1.838000000
C    -2.810000000     1.897000000    -2.801000000
O    -3.924000000     1.509000000    -2.961000000
O    -2.540000000     2.834000000    -3.549000000
