14
-90.38137
C    -0.864000000     1.414000000    -1.558000000
H    -0.340000000     2.095000000    -2.224000000
C    -0.162000000     0.520000000    -0.790000000
H     0.924000000     0.518000000    -0.849000000
C    -0.792000000    -0.349000000     0.053000000
H    -0.242000000    -0.928000000     0.781000000
C    -2.186000000    -0.239000000     0.146000000
H    -2.746000000    -0.842000000     0.856000000
C    -2.948000000     0.551000000    -0.668000000
H    -4.030000000     0.649000000    -0.645000000
C    -2.294000000     1.424000000    -1.547000000
C    -3.065000000     2.400000000    -2.415000000
O    -4.249000000     2.158000000    -2.533000000
O    -2.536000000     3.331000000    -2.996000000
