14
-87.67237
C    -0.151000000     2.458000000    -0.729000000
H    -0.033000000     3.408000000    -1.245000000
C     1.047000000     1.818000000    -0.265000000
H     2.037000000     2.252000000    -0.151000000
C     0.889000000     0.501000000     0.307000000
H     1.741000000     0.082000000     0.743000000
C    -0.383000000    -0.112000000     0.331000000
H    -0.470000000    -1.099000000     0.778000000
C    -1.533000000     0.590000000    -0.069000000
H    -2.521000000     0.140000000    -0.025000000
C    -1.381000000     1.824000000    -0.711000000
C    -2.606000000     2.490000000    -1.325000000
O    -3.750000000     2.050000000    -1.125000000
O    -2.540000000     3.514000000    -2.008000000
