14
-83.00736
C    -1.194000000     2.239000000    -1.833000000
H    -1.048000000     3.099000000    -2.482000000
C    -0.130000000     1.510000000    -1.364000000
H     0.856000000     1.800000000    -1.719000000
C    -0.340000000     0.394000000    -0.538000000
H     0.484000000    -0.191000000    -0.167000000
C    -1.601000000     0.006000000    -0.182000000
H    -1.781000000    -0.923000000     0.353000000
C    -2.658000000     0.827000000    -0.524000000
H    -3.611000000     0.443000000    -0.168000000
C    -2.516000000     1.866000000    -1.483000000
C    -3.731000000     2.598000000    -2.027000000
O    -4.796000000     2.322000000    -1.464000000
O    -3.575000000     3.573000000    -2.657000000
