14
-89.99204
C    -1.865000000    -1.314000000     0.855000000
H    -2.367000000    -2.022000000     1.511000000
C    -0.543000000    -0.918000000     0.948000000
H     0.068000000    -1.431000000     1.686000000
C    -0.018000000    -0.084000000    -0.078000000
H     1.049000000     0.233000000     0.054000000
C    -0.845000000     0.392000000    -1.075000000
H    -0.475000000     1.117000000    -1.796000000
C    -2.219000000     0.083000000    -1.089000000
H    -2.844000000     0.517000000    -1.865000000
C    -2.712000000    -0.834000000    -0.151000000
C    -4.124000000    -1.281000000    -0.273000000
O    -4.876000000    -0.714000000    -1.115000000
O    -4.606000000    -2.041000000     0.528000000
