14
-86.37448
C    -0.653000000     2.311000000    -0.773000000
H    -0.715000000     3.393000000    -0.855000000
C     0.436000000     1.666000000    -0.197000000
H     1.333000000     2.250000000    -0.010000000
C     0.440000000     0.334000000     0.102000000
H     1.258000000    -0.202000000     0.588000000
C    -0.632000000    -0.448000000    -0.135000000
H    -0.647000000    -1.480000000     0.209000000
C    -1.699000000     0.160000000    -0.835000000
H    -2.534000000    -0.463000000    -1.145000000
C    -1.760000000     1.521000000    -1.162000000
C    -3.055000000     2.152000000    -1.568000000
O    -4.106000000     1.523000000    -1.589000000
O    -3.104000000     3.346000000    -1.876000000
