14
-91.53168
C    -0.496000000     2.523000000    -0.001000000
H    -0.095000000     3.533000000    -0.033000000
C     0.382000000     1.521000000    -0.360000000
H     1.439000000     1.702000000    -0.535000000
C    -0.061000000     0.203000000    -0.533000000
H     0.545000000    -0.707000000    -0.707000000
C    -1.401000000    -0.047000000    -0.287000000
H    -1.744000000    -1.079000000    -0.283000000
C    -2.322000000     0.939000000     0.015000000
H    -3.374000000     0.726000000     0.186000000
C    -1.857000000     2.283000000     0.150000000
C    -2.842000000     3.428000000     0.310000000
O    -4.009000000     3.111000000     0.472000000
O    -2.460000000     4.620000000     0.434000000
