14
-83.37293
C    -0.547000000     1.711000000    -0.092000000
H     0.009000000     2.632000000     0.062000000
C     0.041000000     0.460000000    -0.120000000
H     1.122000000     0.350000000    -0.085000000
C    -0.722000000    -0.649000000    -0.133000000
H    -0.168000000    -1.585000000    -0.202000000
C    -2.096000000    -0.529000000    -0.161000000
H    -2.634000000    -1.473000000    -0.210000000
C    -2.698000000     0.707000000    -0.165000000
H    -3.784000000     0.677000000    -0.188000000
C    -1.929000000     1.861000000    -0.261000000
C    -2.613000000     3.227000000    -0.255000000
O    -3.832000000     3.227000000    -0.361000000
O    -2.046000000     4.302000000    -0.429000000
