14
-85.19418
C    -0.123000000     2.267000000    -0.364000000
H     0.424000000     3.204000000    -0.429000000
C     0.398000000     0.969000000    -0.519000000
H     1.477000000     0.857000000    -0.578000000
C    -0.300000000    -0.178000000    -0.318000000
H     0.243000000    -1.100000000    -0.378000000
C    -1.629000000    -0.010000000     0.120000000
H    -2.302000000    -0.846000000     0.291000000
C    -2.210000000     1.195000000     0.240000000
H    -3.238000000     1.311000000     0.573000000
C    -1.541000000     2.349000000    -0.177000000
C    -2.315000000     3.715000000    -0.140000000
O    -3.500000000     3.638000000     0.013000000
O    -1.673000000     4.748000000    -0.257000000
