14
-83.33559
C    -0.510000000     2.024000000    -0.284000000
H    -0.225000000     3.073000000    -0.253000000
C     0.435000000     1.069000000    -0.016000000
H     1.502000000     1.267000000     0.041000000
C     0.075000000    -0.270000000     0.064000000
H     0.839000000    -1.028000000     0.233000000
C    -1.268000000    -0.613000000    -0.087000000
H    -1.578000000    -1.651000000     0.009000000
C    -2.267000000     0.378000000    -0.396000000
H    -3.329000000     0.158000000    -0.323000000
C    -1.922000000     1.733000000    -0.474000000
C    -2.974000000     2.835000000    -0.640000000
O    -3.976000000     2.669000000    -1.229000000
O    -2.578000000     3.966000000    -0.374000000
