14
-89.21100
C    -0.418000000     1.606000000    -0.498000000
H    -0.138000000     2.593000000    -0.860000000
C     0.472000000     0.625000000    -0.064000000
H     1.536000000     0.819000000     0.043000000
C    -0.084000000    -0.555000000     0.323000000
H     0.627000000    -1.284000000     0.714000000
C    -1.452000000    -0.810000000     0.239000000
H    -1.827000000    -1.799000000     0.491000000
C    -2.336000000     0.196000000    -0.290000000
H    -3.419000000     0.118000000    -0.330000000
C    -1.774000000     1.433000000    -0.599000000
C    -2.689000000     2.613000000    -1.013000000
O    -3.900000000     2.569000000    -0.897000000
O    -2.167000000     3.660000000    -1.411000000
