14
-85.69439
C    -1.436000000     1.824000000    -0.197000000
H    -1.909000000     2.737000000     0.157000000
C    -1.061000000     0.794000000     0.666000000
H    -1.221000000     0.989000000     1.724000000
C    -0.497000000    -0.360000000     0.213000000
H     0.095000000    -1.053000000     0.841000000
C    -0.396000000    -0.526000000    -1.145000000
H     0.171000000    -1.375000000    -1.517000000
C    -0.781000000     0.476000000    -2.005000000
H    -0.627000000     0.325000000    -3.070000000
C    -1.298000000     1.662000000    -1.586000000
C    -1.729000000     2.768000000    -2.583000000
O    -2.066000000     2.427000000    -3.685000000
O    -2.081000000     3.865000000    -2.100000000
