14
-82.90048
C    -0.327000000     2.397000000    -1.256000000
H    -0.395000000     3.466000000    -1.439000000
C     0.575000000     1.948000000    -0.295000000
H     1.267000000     2.665000000     0.138000000
C     0.672000000     0.575000000     0.050000000
H     1.314000000     0.157000000     0.887000000
C    -0.205000000    -0.322000000    -0.527000000
H    -0.270000000    -1.324000000    -0.109000000
C    -1.131000000     0.132000000    -1.503000000
H    -1.790000000    -0.604000000    -1.956000000
C    -1.203000000     1.521000000    -1.850000000
C    -2.200000000     2.083000000    -2.929000000
O    -3.135000000     1.460000000    -3.376000000
O    -2.221000000     3.283000000    -3.078000000
