14
-90.79679
C    -1.355000000     2.105000000    -0.601000000
H    -1.636000000     3.154000000    -0.625000000
C    -0.089000000     1.756000000    -0.221000000
H     0.633000000     2.515000000     0.069000000
C     0.267000000     0.431000000    -0.084000000
H     1.264000000     0.228000000     0.184000000
C    -0.731000000    -0.552000000    -0.285000000
H    -0.441000000    -1.598000000    -0.217000000
C    -2.034000000    -0.204000000    -0.648000000
H    -2.793000000    -0.958000000    -0.841000000
C    -2.351000000     1.174000000    -0.855000000
C    -3.684000000     1.556000000    -1.417000000
O    -4.338000000     0.702000000    -1.977000000
O    -3.992000000     2.716000000    -1.375000000
