14
-92.25161
C    -1.529000000     2.608000000    -0.347000000
H    -1.719000000     3.582000000     0.096000000
C    -0.312000000     1.989000000    -0.044000000
H     0.490000000     2.531000000     0.450000000
C    -0.133000000     0.655000000    -0.425000000
H     0.792000000     0.123000000    -0.217000000
C    -1.170000000    -0.060000000    -1.077000000
H    -1.136000000    -1.126000000    -1.285000000
C    -2.436000000     0.522000000    -1.177000000
H    -3.259000000    -0.035000000    -1.617000000
C    -2.579000000     1.905000000    -0.944000000
C    -3.901000000     2.594000000    -1.245000000
O    -4.792000000     1.984000000    -1.865000000
O    -4.090000000     3.699000000    -0.778000000
