14
-91.74880
C    -0.593000000     2.026000000    -1.134000000
H    -0.611000000     2.999000000    -1.618000000
C     0.437000000     1.737000000    -0.262000000
H     1.178000000     2.519000000    -0.113000000
C     0.597000000     0.437000000     0.182000000
H     1.450000000     0.166000000     0.785000000
C    -0.359000000    -0.565000000    -0.123000000
H    -0.323000000    -1.570000000     0.290000000
C    -1.435000000    -0.225000000    -0.934000000
H    -2.183000000    -0.941000000    -1.263000000
C    -1.551000000     1.099000000    -1.487000000
C    -2.709000000     1.541000000    -2.377000000
O    -3.527000000     0.731000000    -2.751000000
O    -2.892000000     2.752000000    -2.488000000
