14
-86.96775
C    -0.647000000     1.594000000    -1.791000000
H    -0.756000000     2.511000000    -2.364000000
C     0.320000000     1.456000000    -0.765000000
H     1.019000000     2.262000000    -0.558000000
C     0.311000000     0.265000000     0.012000000
H     1.219000000     0.103000000     0.670000000
C    -0.609000000    -0.714000000    -0.220000000
H    -0.446000000    -1.585000000     0.409000000
C    -1.530000000    -0.598000000    -1.243000000
H    -2.232000000    -1.420000000    -1.359000000
C    -1.505000000     0.561000000    -2.064000000
C    -2.529000000     0.734000000    -3.178000000
O    -3.507000000    -0.004000000    -3.176000000
O    -2.559000000     1.719000000    -3.942000000
