14
-86.24580
C    -0.577000000     2.364000000    -1.511000000
H    -0.532000000     3.422000000    -1.759000000
C     0.337000000     1.928000000    -0.512000000
H     0.953000000     2.600000000     0.079000000
C     0.317000000     0.614000000    -0.160000000
H     0.806000000     0.274000000     0.700000000
C    -0.514000000    -0.309000000    -0.824000000
H    -0.597000000    -1.359000000    -0.558000000
C    -1.314000000     0.119000000    -1.954000000
H    -1.969000000    -0.595000000    -2.447000000
C    -1.307000000     1.462000000    -2.277000000
C    -2.329000000     1.983000000    -3.268000000
O    -3.180000000     1.271000000    -3.767000000
O    -2.379000000     3.186000000    -3.546000000
