14
-76.10663
C    -0.819000000     2.108000000    -1.250000000
H    -0.921000000     3.109000000    -1.662000000
C     0.089000000     1.694000000    -0.265000000
H     0.790000000     2.392000000     0.185000000
C     0.031000000     0.365000000     0.204000000
H     0.751000000     0.033000000     1.025000000
C    -0.776000000    -0.570000000    -0.453000000
H    -0.879000000    -1.628000000    -0.223000000
C    -1.495000000    -0.191000000    -1.572000000
H    -2.164000000    -0.904000000    -2.048000000
C    -1.557000000     1.180000000    -1.947000000
C    -2.555000000     1.569000000    -3.072000000
O    -3.417000000     0.776000000    -3.282000000
O    -2.810000000     2.732000000    -3.292000000
