14
-86.93517
C    -0.875000000     1.360000000    -2.543000000
H    -0.927000000     2.057000000    -3.375000000
C     0.100000000     1.606000000    -1.567000000
H     0.787000000     2.443000000    -1.661000000
C     0.231000000     0.653000000    -0.575000000
H     0.931000000     0.862000000     0.251000000
C    -0.648000000    -0.424000000    -0.476000000
H    -0.553000000    -1.115000000     0.359000000
C    -1.682000000    -0.583000000    -1.407000000
H    -2.396000000    -1.402000000    -1.378000000
C    -1.750000000     0.269000000    -2.500000000
C    -2.807000000     0.053000000    -3.581000000
O    -3.820000000    -0.665000000    -3.323000000
O    -2.832000000     0.568000000    -4.656000000
