14
-90.31460
C    -1.033000000     1.409000000    -1.573000000
H    -1.295000000     2.256000000    -2.202000000
C     0.069000000     1.366000000    -0.685000000
H     0.661000000     2.264000000    -0.527000000
C     0.328000000     0.155000000     0.016000000
H     1.243000000     0.164000000     0.705000000
C    -0.421000000    -0.981000000    -0.180000000
H    -0.208000000    -1.877000000     0.397000000
C    -1.502000000    -0.891000000    -1.061000000
H    -2.118000000    -1.778000000    -1.181000000
C    -1.770000000     0.251000000    -1.806000000
C    -2.904000000     0.162000000    -2.780000000
O    -3.570000000    -0.853000000    -2.940000000
O    -3.061000000     1.120000000    -3.506000000
