14
-79.92365
C    -1.216000000     2.083000000    -1.218000000
H    -1.388000000     3.126000000    -1.472000000
C    -0.286000000     1.730000000    -0.209000000
H     0.139000000     2.567000000     0.341000000
C    -0.026000000     0.410000000     0.127000000
H     0.701000000     0.112000000     0.877000000
C    -0.814000000    -0.548000000    -0.436000000
H    -0.748000000    -1.576000000    -0.090000000
C    -1.723000000    -0.257000000    -1.442000000
H    -2.299000000    -1.089000000    -1.838000000
C    -1.978000000     1.097000000    -1.787000000
C    -3.116000000     1.383000000    -2.699000000
O    -3.668000000     0.549000000    -3.317000000
O    -3.733000000     2.462000000    -2.585000000
