14
-89.36444
C    -0.665000000     1.498000000    -1.433000000
H    -0.515000000     2.459000000    -1.918000000
C     0.144000000     1.139000000    -0.363000000
H     0.946000000     1.814000000    -0.074000000
C    -0.036000000    -0.066000000     0.258000000
H     0.738000000    -0.400000000     1.036000000
C    -1.171000000    -0.787000000    -0.015000000
H    -1.340000000    -1.736000000     0.487000000
C    -2.105000000    -0.370000000    -0.975000000
H    -2.979000000    -0.988000000    -1.166000000
C    -1.811000000     0.752000000    -1.718000000
C    -2.852000000     1.203000000    -2.713000000
O    -3.804000000     0.508000000    -2.933000000
O    -2.768000000     2.356000000    -3.133000000
