14
-84.88654
C    -0.223000000     0.859000000    -1.712000000
H     0.067000000     1.800000000    -2.171000000
C     0.554000000     0.432000000    -0.604000000
H     1.586000000     0.697000000    -0.389000000
C     0.042000000    -0.613000000     0.179000000
H     0.635000000    -0.953000000     1.041000000
C    -1.157000000    -1.273000000    -0.186000000
H    -1.464000000    -2.151000000     0.378000000
C    -1.932000000    -0.809000000    -1.207000000
H    -2.817000000    -1.408000000    -1.409000000
C    -1.473000000     0.220000000    -2.054000000
C    -2.264000000     0.863000000    -3.164000000
O    -3.286000000     0.353000000    -3.578000000
O    -1.882000000     1.911000000    -3.639000000
