14
-88.77874
C    -1.486000000     1.715000000    -2.267000000
H    -1.694000000     2.582000000    -2.887000000
C    -0.333000000     1.803000000    -1.477000000
H     0.329000000     2.585000000    -1.838000000
C     0.115000000     0.786000000    -0.669000000
H     1.027000000     0.789000000    -0.132000000
C    -0.761000000    -0.265000000    -0.450000000
H    -0.540000000    -1.019000000     0.301000000
C    -1.955000000    -0.342000000    -1.103000000
H    -2.636000000    -1.168000000    -0.916000000
C    -2.273000000     0.570000000    -2.121000000
C    -3.706000000     0.515000000    -2.721000000
O    -4.549000000    -0.261000000    -2.232000000
O    -3.970000000     1.362000000    -3.576000000
