14
-84.32787
C    -1.214000000     1.095000000    -1.417000000
H    -1.635000000     1.873000000    -2.049000000
C    -0.035000000     1.331000000    -0.673000000
H     0.559000000     2.239000000    -0.734000000
C     0.436000000     0.402000000     0.180000000
H     1.351000000     0.614000000     0.779000000
C    -0.150000000    -0.813000000     0.245000000
H     0.364000000    -1.621000000     0.760000000
C    -1.369000000    -1.020000000    -0.395000000
H    -1.817000000    -2.004000000    -0.292000000
C    -1.917000000    -0.125000000    -1.274000000
C    -3.312000000    -0.271000000    -1.853000000
O    -3.930000000    -1.303000000    -1.664000000
O    -3.844000000     0.622000000    -2.465000000
