14
-84.86191
C    -0.895000000     2.074000000    -1.266000000
H    -1.144000000     2.970000000    -1.828000000
C     0.337000000     1.875000000    -0.620000000
H     1.203000000     2.530000000    -0.678000000
C     0.508000000     0.701000000     0.138000000
H     1.541000000     0.430000000     0.536000000
C    -0.507000000    -0.220000000     0.336000000
H    -0.393000000    -1.091000000     0.977000000
C    -1.718000000    -0.018000000    -0.350000000
H    -2.517000000    -0.690000000    -0.047000000
C    -1.875000000     1.156000000    -1.134000000
C    -3.229000000     1.476000000    -1.766000000
O    -3.968000000     0.641000000    -2.202000000
O    -3.613000000     2.637000000    -1.742000000
