14
-83.91300
C    -1.441000000     1.453000000    -1.048000000
H    -2.008000000     2.142000000    -1.670000000
C    -0.140000000     1.662000000    -0.559000000
H     0.357000000     2.599000000    -0.798000000
C     0.594000000     0.722000000     0.152000000
H     1.667000000     0.949000000     0.284000000
C     0.018000000    -0.481000000     0.372000000
H     0.621000000    -1.308000000     0.737000000
C    -1.269000000    -0.774000000    -0.030000000
H    -1.648000000    -1.784000000     0.105000000
C    -2.054000000     0.202000000    -0.701000000
C    -3.391000000    -0.175000000    -1.247000000
O    -3.945000000    -1.193000000    -0.892000000
O    -3.953000000     0.490000000    -2.090000000
