14
-86.00316
C    -1.527000000     1.407000000    -0.766000000
H    -2.106000000     2.212000000    -1.212000000
C    -0.174000000     1.601000000    -0.407000000
H     0.274000000     2.584000000    -0.523000000
C     0.551000000     0.559000000     0.114000000
H     1.563000000     0.701000000     0.199000000
C    -0.029000000    -0.659000000     0.340000000
H     0.532000000    -1.459000000     0.817000000
C    -1.337000000    -0.858000000     0.028000000
H    -1.824000000    -1.765000000     0.374000000
C    -2.084000000     0.165000000    -0.591000000
C    -3.586000000    -0.005000000    -0.863000000
O    -3.974000000    -1.138000000    -1.075000000
O    -4.350000000     0.915000000    -0.997000000
