14
-88.29675
C    -2.089000000     1.385000000    -0.487000000
H    -2.753000000     2.152000000    -0.876000000
C    -0.811000000     1.717000000    -0.204000000
H    -0.512000000     2.756000000    -0.316000000
C     0.116000000     0.738000000     0.205000000
H     1.149000000     0.934000000     0.544000000
C    -0.354000000    -0.590000000     0.317000000
H     0.345000000    -1.357000000     0.642000000
C    -1.725000000    -0.930000000     0.112000000
H    -1.999000000    -1.978000000     0.204000000
C    -2.613000000     0.085000000    -0.387000000
C    -4.058000000    -0.202000000    -0.646000000
O    -4.386000000    -1.384000000    -0.687000000
O    -4.833000000     0.665000000    -0.974000000
