14
-84.96227
C    -1.635000000     0.808000000    -1.234000000
H    -2.137000000     1.671000000    -1.663000000
C    -0.394000000     0.858000000    -0.650000000
H     0.070000000     1.834000000    -0.529000000
C     0.260000000    -0.259000000    -0.296000000
H     1.214000000    -0.236000000     0.177000000
C    -0.369000000    -1.512000000    -0.351000000
H     0.127000000    -2.367000000     0.100000000
C    -1.673000000    -1.573000000    -0.878000000
H    -2.122000000    -2.563000000    -0.855000000
C    -2.318000000    -0.447000000    -1.308000000
C    -3.682000000    -0.531000000    -1.981000000
O    -3.994000000    -1.476000000    -2.629000000
O    -4.354000000     0.483000000    -2.004000000
