14
-85.03775
C    -1.321000000     1.608000000    -1.533000000
H    -1.420000000     2.567000000    -2.037000000
C    -0.241000000     1.302000000    -0.712000000
H     0.561000000     2.027000000    -0.599000000
C    -0.311000000     0.074000000     0.037000000
H     0.527000000    -0.264000000     0.662000000
C    -1.347000000    -0.779000000    -0.085000000
H    -1.292000000    -1.770000000     0.358000000
C    -2.392000000    -0.548000000    -0.936000000
H    -3.243000000    -1.221000000    -1.003000000
C    -2.385000000     0.643000000    -1.672000000
C    -3.463000000     0.972000000    -2.579000000
O    -4.520000000     0.331000000    -2.472000000
O    -3.439000000     1.857000000    -3.432000000
