14
-84.35880
C    -1.294000000     0.065000000    -2.534000000
H    -0.800000000     0.443000000    -3.425000000
C    -0.428000000    -0.237000000    -1.458000000
H     0.650000000    -0.106000000    -1.513000000
C    -0.915000000    -0.907000000    -0.304000000
H    -0.274000000    -1.119000000     0.536000000
C    -2.229000000    -1.272000000    -0.248000000
H    -2.581000000    -1.714000000     0.681000000
C    -3.118000000    -0.888000000    -1.211000000
H    -4.156000000    -1.084000000    -0.956000000
C    -2.651000000    -0.240000000    -2.408000000
C    -3.610000000     0.114000000    -3.452000000
O    -4.576000000    -0.588000000    -3.598000000
O    -3.297000000     1.026000000    -4.179000000
