14
-78.69104
C    -1.139000000     0.161000000    -2.622000000
H    -1.975000000     0.086000000    -3.313000000
C    -1.333000000    -0.062000000    -1.284000000
H    -2.390000000    -0.188000000    -1.061000000
C    -0.231000000    -0.236000000    -0.422000000
H    -0.355000000    -0.396000000     0.651000000
C     1.026000000    -0.074000000    -0.946000000
H     1.842000000    -0.124000000    -0.230000000
C     1.210000000     0.120000000    -2.295000000
H     2.211000000     0.020000000    -2.707000000
C     0.140000000     0.090000000    -3.164000000
C     0.341000000     0.201000000    -4.680000000
O     1.420000000     0.453000000    -5.184000000
O    -0.549000000    -0.165000000    -5.342000000
