14
-88.43318
C    -0.586000000     1.298000000    -1.747000000
H    -0.599000000     2.300000000    -2.167000000
C     0.291000000     0.994000000    -0.710000000
H     1.014000000     1.654000000    -0.235000000
C     0.244000000    -0.247000000    -0.089000000
H     1.003000000    -0.575000000     0.616000000
C    -0.722000000    -1.189000000    -0.467000000
H    -0.717000000    -2.173000000    -0.005000000
C    -1.647000000    -0.879000000    -1.492000000
H    -2.414000000    -1.625000000    -1.682000000
C    -1.571000000     0.344000000    -2.143000000
C    -2.620000000     0.750000000    -3.190000000
O    -3.585000000     0.038000000    -3.251000000
O    -2.662000000     1.890000000    -3.726000000
