14
-86.06377
C    -0.781000000     1.405000000    -1.173000000
H    -1.192000000     2.302000000    -1.629000000
C     0.093000000     1.466000000    -0.094000000
H     0.309000000     2.445000000     0.326000000
C     0.639000000     0.359000000     0.553000000
H     1.215000000     0.524000000     1.402000000
C     0.220000000    -0.874000000     0.068000000
H     0.569000000    -1.705000000     0.676000000
C    -0.516000000    -1.017000000    -1.058000000
H    -0.810000000    -1.996000000    -1.428000000
C    -1.054000000     0.119000000    -1.731000000
C    -1.991000000    -0.007000000    -2.839000000
O    -2.565000000    -1.087000000    -2.983000000
O    -2.452000000     0.997000000    -3.410000000
