14
-80.61374
C    -0.855000000     1.804000000    -1.514000000
H    -1.126000000     2.811000000    -1.820000000
C     0.058000000     1.581000000    -0.441000000
H     0.613000000     2.429000000    -0.048000000
C     0.374000000     0.308000000    -0.024000000
H     0.987000000     0.170000000     0.851000000
C    -0.322000000    -0.790000000    -0.549000000
H    -0.120000000    -1.794000000    -0.185000000
C    -1.334000000    -0.531000000    -1.458000000
H    -2.068000000    -1.276000000    -1.751000000
C    -1.604000000     0.723000000    -1.995000000
C    -2.790000000     0.769000000    -2.933000000
O    -3.808000000     0.089000000    -2.747000000
O    -2.907000000     1.761000000    -3.585000000
