14
-91.17410
C    -0.714000000    -0.404000000    -1.547000000
H    -1.661000000    -0.725000000    -1.974000000
C    -0.510000000    -0.302000000    -0.165000000
H    -1.292000000    -0.585000000     0.535000000
C     0.667000000     0.185000000     0.386000000
H     0.942000000     0.255000000     1.452000000
C     1.629000000     0.575000000    -0.558000000
H     2.593000000     0.995000000    -0.283000000
C     1.438000000     0.458000000    -1.983000000
H     2.212000000     0.898000000    -2.607000000
C     0.296000000    -0.125000000    -2.463000000
C     0.135000000    -0.249000000    -3.963000000
O     1.022000000     0.255000000    -4.672000000
O    -0.874000000    -0.732000000    -4.440000000
