14
-85.03094
C    -1.523000000     1.356000000    -1.666000000
H    -1.543000000     2.394000000    -1.991000000
C    -0.680000000     1.039000000    -0.559000000
H    -0.279000000     1.884000000    -0.005000000
C    -0.320000000    -0.293000000    -0.277000000
H     0.343000000    -0.480000000     0.558000000
C    -1.012000000    -1.334000000    -0.948000000
H    -0.910000000    -2.362000000    -0.610000000
C    -1.806000000    -0.980000000    -2.045000000
H    -2.372000000    -1.732000000    -2.588000000
C    -2.090000000     0.302000000    -2.468000000
C    -3.052000000     0.615000000    -3.619000000
O    -3.965000000    -0.129000000    -3.853000000
O    -3.015000000     1.711000000    -4.133000000
