14
-89.14404
C    -1.079000000     1.683000000    -1.669000000
H    -1.364000000     2.609000000    -2.161000000
C    -0.185000000     1.777000000    -0.586000000
H     0.290000000     2.724000000    -0.343000000
C     0.193000000     0.615000000     0.101000000
H     0.944000000     0.701000000     0.900000000
C    -0.399000000    -0.603000000    -0.247000000
H    -0.094000000    -1.483000000     0.315000000
C    -1.342000000    -0.666000000    -1.322000000
H    -1.830000000    -1.589000000    -1.625000000
C    -1.696000000     0.458000000    -2.036000000
C    -2.711000000     0.418000000    -3.103000000
O    -3.276000000    -0.631000000    -3.284000000
O    -2.985000000     1.381000000    -3.777000000
