14
-84.27520
C    -1.125000000     2.112000000    -1.204000000
H    -0.893000000     3.147000000    -1.443000000
C    -0.360000000     1.472000000    -0.206000000
H     0.444000000     2.041000000     0.252000000
C    -0.440000000     0.106000000     0.027000000
H     0.214000000    -0.450000000     0.676000000
C    -1.301000000    -0.622000000    -0.795000000
H    -1.280000000    -1.696000000    -0.632000000
C    -2.131000000    -0.039000000    -1.823000000
H    -2.779000000    -0.671000000    -2.426000000
C    -1.958000000     1.377000000    -2.040000000
C    -2.765000000     2.073000000    -3.209000000
O    -3.455000000     1.436000000    -3.994000000
O    -2.928000000     3.273000000    -3.142000000
