14
-82.68438
C    -1.830000000     2.045000000    -1.844000000
H    -1.662000000     3.118000000    -1.789000000
C    -1.131000000     1.210000000    -1.008000000
H    -0.493000000     1.733000000    -0.300000000
C    -1.218000000    -0.171000000    -0.963000000
H    -0.682000000    -0.739000000    -0.184000000
C    -2.160000000    -0.697000000    -1.847000000
H    -2.271000000    -1.778000000    -1.870000000
C    -2.846000000     0.042000000    -2.780000000
H    -3.432000000    -0.519000000    -3.504000000
C    -2.688000000     1.435000000    -2.794000000
C    -3.565000000     2.294000000    -3.649000000
O    -4.296000000     1.790000000    -4.455000000
O    -3.784000000     3.437000000    -3.291000000
