14
-87.75781
C    -0.658000000     1.705000000    -1.919000000
H    -0.512000000     2.660000000    -2.417000000
C     0.212000000     1.271000000    -0.887000000
H     1.069000000     1.810000000    -0.491000000
C    -0.049000000     0.104000000    -0.262000000
H     0.580000000    -0.199000000     0.608000000
C    -1.115000000    -0.759000000    -0.664000000
H    -1.243000000    -1.698000000    -0.130000000
C    -1.975000000    -0.373000000    -1.690000000
H    -2.805000000    -0.971000000    -2.058000000
C    -1.731000000     0.878000000    -2.322000000
C    -2.813000000     1.513000000    -3.145000000
O    -3.832000000     0.926000000    -3.472000000
O    -2.747000000     2.715000000    -3.412000000
