14
-89.17165
C    -1.187000000     2.095000000    -1.824000000
H    -1.464000000     3.083000000    -2.183000000
C    -0.183000000     1.987000000    -0.886000000
H     0.289000000     2.898000000    -0.527000000
C     0.271000000     0.769000000    -0.369000000
H     1.072000000     0.771000000     0.367000000
C    -0.350000000    -0.401000000    -0.788000000
H     0.020000000    -1.373000000    -0.472000000
C    -1.358000000    -0.357000000    -1.799000000
H    -1.794000000    -1.308000000    -2.095000000
C    -1.798000000     0.893000000    -2.268000000
C    -2.899000000     0.977000000    -3.291000000
O    -3.495000000    -0.075000000    -3.559000000
O    -3.237000000     2.000000000    -3.764000000
