14
-79.75189
C    -0.931000000     2.133000000    -2.049000000
H    -1.005000000     3.199000000    -2.251000000
C    -0.308000000     1.694000000    -0.866000000
H     0.097000000     2.470000000    -0.222000000
C    -0.266000000     0.298000000    -0.640000000
H     0.236000000    -0.091000000     0.221000000
C    -0.804000000    -0.631000000    -1.544000000
H    -0.747000000    -1.716000000    -1.528000000
C    -1.450000000    -0.126000000    -2.688000000
H    -1.947000000    -0.723000000    -3.449000000
C    -1.544000000     1.262000000    -2.893000000
C    -2.252000000     1.672000000    -4.149000000
O    -3.344000000     1.161000000    -4.357000000
O    -2.066000000     2.800000000    -4.559000000
