14
-81.88570
C    -0.863000000     1.033000000    -1.990000000
H    -1.218000000     1.711000000    -2.762000000
C    -0.166000000     1.487000000    -0.892000000
H     0.148000000     2.515000000    -0.733000000
C     0.208000000     0.577000000     0.140000000
H     0.837000000     0.831000000     0.941000000
C    -0.048000000    -0.768000000     0.021000000
H     0.196000000    -1.481000000     0.803000000
C    -0.615000000    -1.228000000    -1.167000000
H    -0.715000000    -2.303000000    -1.289000000
C    -1.036000000    -0.371000000    -2.177000000
C    -1.962000000    -0.824000000    -3.235000000
O    -2.340000000    -1.951000000    -3.267000000
O    -2.510000000    -0.021000000    -3.962000000
