14
-79.13084
C    -1.020000000     0.446000000    -2.066000000
H    -1.389000000     1.014000000    -2.917000000
C    -0.398000000     0.940000000    -0.964000000
H    -0.110000000     1.977000000    -1.118000000
C    -0.117000000     0.123000000     0.090000000
H     0.452000000     0.515000000     0.905000000
C    -0.438000000    -1.208000000     0.044000000
H    -0.165000000    -1.907000000     0.831000000
C    -1.077000000    -1.727000000    -1.073000000
H    -1.183000000    -2.809000000    -1.081000000
C    -1.437000000    -0.875000000    -2.084000000
C    -2.147000000    -1.367000000    -3.281000000
O    -2.172000000    -2.541000000    -3.513000000
O    -2.888000000    -0.634000000    -3.892000000
