14
-89.42745
C    -1.189000000     1.121000000    -2.078000000
H    -1.181000000     1.935000000    -2.799000000
C    -0.557000000     1.262000000    -0.837000000
H    -0.014000000     2.167000000    -0.578000000
C    -0.720000000     0.259000000     0.100000000
H    -0.397000000     0.372000000     1.135000000
C    -1.392000000    -0.940000000    -0.139000000
H    -1.593000000    -1.600000000     0.701000000
C    -1.861000000    -1.147000000    -1.434000000
H    -2.291000000    -2.104000000    -1.718000000
C    -1.773000000    -0.106000000    -2.457000000
C    -2.365000000    -0.346000000    -3.830000000
O    -3.201000000    -1.206000000    -3.907000000
O    -2.104000000     0.428000000    -4.726000000
