14
-84.36773
C    -1.040000000     1.359000000    -1.506000000
H    -1.232000000     2.327000000    -1.961000000
C    -0.221000000     1.380000000    -0.351000000
H     0.006000000     2.331000000     0.122000000
C     0.126000000     0.166000000     0.226000000
H     0.776000000     0.248000000     1.044000000
C    -0.315000000    -1.036000000    -0.274000000
H    -0.024000000    -1.974000000     0.192000000
C    -1.207000000    -1.014000000    -1.395000000
H    -1.702000000    -1.935000000    -1.694000000
C    -1.490000000     0.166000000    -2.106000000
C    -2.250000000     0.157000000    -3.383000000
O    -2.591000000    -0.864000000    -3.920000000
O    -2.568000000     1.217000000    -3.805000000
