14
-87.51430
C    -1.175000000     0.858000000    -2.276000000
H    -2.061000000     0.474000000    -2.777000000
C    -0.985000000     0.496000000    -0.952000000
H    -1.745000000    -0.118000000    -0.477000000
C     0.175000000     0.849000000    -0.301000000
H     0.335000000     0.523000000     0.723000000
C     1.086000000     1.679000000    -0.973000000
H     1.986000000     2.073000000    -0.508000000
C     0.942000000     2.007000000    -2.263000000
H     1.735000000     2.625000000    -2.676000000
C    -0.228000000     1.614000000    -2.995000000
C    -0.431000000     2.107000000    -4.448000000
O     0.224000000     3.056000000    -4.845000000
O    -1.224000000     1.584000000    -5.193000000
