14
-79.76015
C    -0.703000000     0.996000000    -1.913000000
H    -0.863000000     1.850000000    -2.565000000
C     0.023000000     1.129000000    -0.710000000
H     0.646000000     1.977000000    -0.440000000
C     0.127000000    -0.040000000     0.044000000
H     0.817000000    -0.138000000     0.923000000
C    -0.633000000    -1.155000000    -0.318000000
H    -0.581000000    -2.060000000     0.282000000
C    -1.428000000    -1.188000000    -1.467000000
H    -2.009000000    -2.055000000    -1.770000000
C    -1.480000000    -0.009000000    -2.244000000
C    -2.292000000    -0.027000000    -3.528000000
O    -3.075000000    -0.887000000    -3.848000000
O    -2.352000000     1.041000000    -4.124000000
