14
-90.17631
C    -1.317000000     1.040000000    -1.743000000
H    -1.893000000     1.626000000    -2.455000000
C    -0.658000000     1.639000000    -0.657000000
H    -0.716000000     2.713000000    -0.499000000
C     0.120000000     0.871000000     0.138000000
H     0.767000000     1.246000000     0.917000000
C     0.129000000    -0.533000000    -0.037000000
H     0.764000000    -1.156000000     0.589000000
C    -0.594000000    -1.138000000    -1.035000000
H    -0.528000000    -2.214000000    -1.175000000
C    -1.327000000    -0.328000000    -1.930000000
C    -2.053000000    -1.057000000    -3.067000000
O    -2.100000000    -2.251000000    -3.216000000
O    -2.571000000    -0.333000000    -3.916000000
