14
-91.37125
C    -0.322000000    -1.710000000    -1.978000000
H    -0.143000000    -2.464000000    -2.741000000
C     0.762000000    -1.277000000    -1.196000000
H     1.770000000    -1.642000000    -1.373000000
C     0.474000000    -0.340000000    -0.159000000
H     1.227000000    -0.012000000     0.495000000
C    -0.850000000     0.113000000     0.049000000
H    -1.143000000     0.802000000     0.838000000
C    -1.879000000    -0.407000000    -0.737000000
H    -2.906000000    -0.078000000    -0.597000000
C    -1.610000000    -1.250000000    -1.815000000
C    -2.686000000    -1.730000000    -2.723000000
O    -3.521000000    -0.915000000    -3.044000000
O    -2.621000000    -2.852000000    -3.300000000
