14
-85.49182
C     0.075000000    -1.481000000    -2.281000000
H     0.760000000    -1.549000000    -3.122000000
C     0.583000000    -0.798000000    -1.190000000
H     1.630000000    -0.508000000    -1.213000000
C    -0.271000000    -0.325000000    -0.202000000
H     0.064000000     0.217000000     0.684000000
C    -1.593000000    -0.653000000    -0.270000000
H    -2.232000000    -0.297000000     0.535000000
C    -2.133000000    -1.372000000    -1.359000000
H    -3.172000000    -1.690000000    -1.356000000
C    -1.285000000    -1.732000000    -2.456000000
C    -1.805000000    -2.228000000    -3.770000000
O    -3.012000000    -2.250000000    -4.085000000
O    -0.970000000    -2.436000000    -4.602000000
