14
-86.61558
C    -1.380000000     0.507000000    -2.536000000
H    -2.084000000     0.092000000    -3.253000000
C    -1.058000000    -0.212000000    -1.399000000
H    -1.601000000    -1.135000000    -1.211000000
C    -0.125000000     0.196000000    -0.405000000
H     0.070000000    -0.311000000     0.540000000
C     0.389000000     1.489000000    -0.529000000
H     0.999000000     1.927000000     0.256000000
C     0.058000000     2.277000000    -1.645000000
H     0.435000000     3.287000000    -1.787000000
C    -0.786000000     1.735000000    -2.719000000
C    -0.908000000     2.500000000    -4.027000000
O    -0.177000000     3.436000000    -4.288000000
O    -1.714000000     2.087000000    -4.803000000
