14
-82.81453
C     0.067000000    -0.977000000    -2.387000000
H     0.738000000    -1.148000000    -3.224000000
C     0.511000000    -0.399000000    -1.222000000
H     1.474000000     0.103000000    -1.175000000
C    -0.312000000    -0.121000000    -0.133000000
H     0.005000000     0.490000000     0.722000000
C    -1.624000000    -0.571000000    -0.202000000
H    -2.253000000    -0.435000000     0.674000000
C    -2.137000000    -1.195000000    -1.377000000
H    -3.132000000    -1.626000000    -1.300000000
C    -1.291000000    -1.382000000    -2.517000000
C    -1.690000000    -2.185000000    -3.693000000
O    -2.628000000    -2.942000000    -3.582000000
O    -1.372000000    -1.804000000    -4.828000000
