14
-84.20704
C    -0.105000000    -1.606000000    -2.665000000
H     0.484000000    -2.113000000    -3.425000000
C     0.622000000    -0.951000000    -1.674000000
H     1.703000000    -1.034000000    -1.598000000
C    -0.027000000    -0.142000000    -0.740000000
H     0.545000000     0.381000000     0.064000000
C    -1.429000000    -0.001000000    -0.783000000
H    -1.943000000     0.592000000    -0.031000000
C    -2.117000000    -0.742000000    -1.743000000
H    -3.192000000    -0.582000000    -1.732000000
C    -1.492000000    -1.470000000    -2.747000000
C    -2.253000000    -2.204000000    -3.852000000
O    -3.320000000    -1.756000000    -4.221000000
O    -1.673000000    -2.920000000    -4.658000000
