14
-87.30958
C    -0.416000000    -1.698000000    -1.946000000
H     0.323000000    -2.392000000    -2.339000000
C    -0.128000000    -0.771000000    -0.920000000
H     0.880000000    -0.718000000    -0.516000000
C    -1.089000000     0.022000000    -0.352000000
H    -0.877000000     0.759000000     0.436000000
C    -2.337000000     0.071000000    -1.032000000
H    -3.046000000     0.827000000    -0.705000000
C    -2.648000000    -0.778000000    -2.082000000
H    -3.515000000    -0.715000000    -2.735000000
C    -1.730000000    -1.792000000    -2.389000000
C    -2.159000000    -2.865000000    -3.332000000
O    -3.314000000    -2.880000000    -3.661000000
O    -1.394000000    -3.760000000    -3.764000000
