14
-85.60625
C    -0.512000000    -1.482000000    -1.693000000
H    -0.081000000    -2.377000000    -2.134000000
C     0.404000000    -0.560000000    -1.166000000
H     1.471000000    -0.680000000    -1.334000000
C     0.047000000     0.482000000    -0.344000000
H     0.729000000     1.103000000     0.097000000
C    -1.317000000     0.561000000    -0.016000000
H    -1.556000000     1.329000000     0.716000000
C    -2.193000000    -0.335000000    -0.586000000
H    -3.243000000    -0.244000000    -0.317000000
C    -1.870000000    -1.399000000    -1.385000000
C    -2.925000000    -2.287000000    -1.904000000
O    -4.099000000    -2.137000000    -1.606000000
O    -2.618000000    -3.267000000    -2.611000000
