14
-81.72220
C     0.427000000    -1.465000000    -1.641000000
H     1.242000000    -1.693000000    -2.324000000
C     0.732000000    -0.384000000    -0.766000000
H     1.742000000     0.016000000    -0.726000000
C    -0.198000000     0.057000000     0.203000000
H     0.104000000     0.852000000     0.935000000
C    -1.512000000    -0.438000000     0.079000000
H    -2.267000000     0.061000000     0.682000000
C    -1.800000000    -1.435000000    -0.809000000
H    -2.852000000    -1.662000000    -0.956000000
C    -0.925000000    -1.955000000    -1.752000000
C    -1.226000000    -3.028000000    -2.799000000
O    -2.377000000    -3.284000000    -3.019000000
O    -0.377000000    -3.513000000    -3.560000000
