14
-79.34745
C     0.339000000    -0.773000000    -1.963000000
H     0.838000000    -0.457000000    -2.876000000
C     0.696000000    -0.299000000    -0.746000000
H     1.670000000     0.118000000    -0.502000000
C    -0.083000000    -0.503000000     0.408000000
H     0.177000000    -0.052000000     1.445000000
C    -1.261000000    -1.167000000     0.198000000
H    -2.009000000    -1.083000000     0.982000000
C    -1.674000000    -1.635000000    -1.035000000
H    -2.674000000    -2.058000000    -1.096000000
C    -0.851000000    -1.482000000    -2.170000000
C    -1.350000000    -1.874000000    -3.541000000
O    -2.517000000    -2.092000000    -3.684000000
O    -0.674000000    -1.653000000    -4.564000000
