14
-90.00239
C     0.016000000    -1.005000000    -2.065000000
H     0.841000000    -1.312000000    -2.703000000
C     0.329000000    -0.353000000    -0.862000000
H     1.328000000     0.048000000    -0.710000000
C    -0.692000000    -0.100000000     0.116000000
H    -0.506000000     0.248000000     1.053000000
C    -1.994000000    -0.549000000    -0.226000000
H    -2.765000000    -0.374000000     0.520000000
C    -2.254000000    -1.158000000    -1.454000000
H    -3.267000000    -1.493000000    -1.663000000
C    -1.232000000    -1.475000000    -2.358000000
C    -1.455000000    -2.343000000    -3.557000000
O    -2.578000000    -2.717000000    -3.846000000
O    -0.495000000    -2.641000000    -4.276000000
