14
-82.61317
C     0.910000000    -1.218000000    -1.780000000
H     1.339000000    -1.924000000    -2.487000000
C     1.625000000    -0.691000000    -0.698000000
H     2.683000000    -0.935000000    -0.633000000
C     0.922000000     0.209000000     0.121000000
H     1.425000000     0.787000000     0.928000000
C    -0.451000000     0.338000000     0.064000000
H    -1.000000000     0.876000000     0.833000000
C    -1.078000000    -0.246000000    -1.029000000
H    -2.154000000    -0.097000000    -1.085000000
C    -0.453000000    -0.974000000    -1.995000000
C    -1.104000000    -1.571000000    -3.214000000
O    -2.319000000    -1.602000000    -3.375000000
O    -0.484000000    -2.139000000    -4.089000000
