14
-88.25561
C     1.058000000    -0.769000000    -2.213000000
H     1.731000000    -1.266000000    -2.907000000
C     1.384000000    -0.594000000    -0.860000000
H     2.321000000    -0.919000000    -0.414000000
C     0.405000000    -0.026000000     0.027000000
H     0.734000000     0.302000000     1.012000000
C    -0.839000000     0.324000000    -0.470000000
H    -1.587000000     0.698000000     0.225000000
C    -1.194000000     0.069000000    -1.808000000
H    -2.218000000     0.152000000    -2.162000000
C    -0.221000000    -0.461000000    -2.679000000
C    -0.752000000    -0.929000000    -4.031000000
O    -1.818000000    -0.553000000    -4.400000000
O    -0.152000000    -1.863000000    -4.526000000
