14
-87.17902
C     0.426000000    -0.920000000    -2.222000000
H     1.114000000    -1.221000000    -3.008000000
C     0.824000000    -0.768000000    -0.903000000
H     1.858000000    -0.930000000    -0.610000000
C    -0.101000000    -0.287000000     0.015000000
H     0.241000000    -0.244000000     1.014000000
C    -1.462000000    -0.027000000    -0.350000000
H    -2.125000000     0.455000000     0.364000000
C    -1.837000000    -0.242000000    -1.652000000
H    -2.847000000    -0.180000000    -2.049000000
C    -0.907000000    -0.706000000    -2.623000000
C    -1.293000000    -0.845000000    -4.075000000
O    -2.328000000    -0.514000000    -4.515000000
O    -0.485000000    -1.554000000    -4.762000000
