14
-85.37488
C    -0.061000000     0.837000000    -1.708000000
H    -0.853000000     0.729000000    -2.445000000
C    -0.251000000     0.128000000    -0.476000000
H    -1.130000000    -0.410000000    -0.128000000
C     0.707000000     0.318000000     0.493000000
H     0.484000000    -0.174000000     1.430000000
C     1.774000000     1.150000000     0.293000000
H     2.408000000     1.293000000     1.165000000
C     2.096000000     1.666000000    -0.961000000
H     2.897000000     2.378000000    -1.143000000
C     1.100000000     1.533000000    -1.998000000
C     1.316000000     2.203000000    -3.317000000
O     2.386000000     2.712000000    -3.618000000
O     0.436000000     2.146000000    -4.175000000
