14
-78.30150
C     1.136000000    -1.233000000    -3.064000000
H     2.009000000    -1.676000000    -3.536000000
C     1.259000000    -1.133000000    -1.722000000
H     2.137000000    -1.468000000    -1.174000000
C     0.259000000    -0.475000000    -1.017000000
H     0.326000000    -0.491000000     0.019000000
C    -0.736000000     0.166000000    -1.732000000
H    -1.577000000     0.678000000    -1.272000000
C    -0.849000000     0.130000000    -3.085000000
H    -1.763000000     0.467000000    -3.566000000
C     0.071000000    -0.660000000    -3.805000000
C    -0.123000000    -0.996000000    -5.231000000
O    -1.007000000    -0.515000000    -5.904000000
O     0.633000000    -1.787000000    -5.683000000
