14
-75.64633
C     0.559000000    -1.017000000    -2.259000000
H     1.184000000    -1.513000000    -2.997000000
C     1.093000000    -0.746000000    -0.976000000
H     2.032000000    -1.216000000    -0.693000000
C     0.211000000    -0.167000000     0.010000000
H     0.531000000    -0.101000000     1.037000000
C    -1.056000000     0.183000000    -0.330000000
H    -1.833000000     0.500000000     0.361000000
C    -1.523000000    -0.032000000    -1.568000000
H    -2.589000000     0.135000000    -1.701000000
C    -0.769000000    -0.600000000    -2.592000000
C    -1.447000000    -0.996000000    -3.851000000
O    -2.544000000    -0.584000000    -4.118000000
O    -1.011000000    -1.863000000    -4.545000000
