14
-84.44867
C     0.768000000    -1.066000000    -2.639000000
H     1.556000000    -1.641000000    -3.118000000
C     1.004000000    -0.622000000    -1.343000000
H     1.924000000    -1.045000000    -0.946000000
C     0.188000000     0.200000000    -0.593000000
H     0.377000000     0.442000000     0.498000000
C    -0.958000000     0.727000000    -1.230000000
H    -1.624000000     1.406000000    -0.704000000
C    -1.187000000     0.410000000    -2.554000000
H    -2.116000000     0.846000000    -2.912000000
C    -0.346000000    -0.533000000    -3.251000000
C    -0.564000000    -0.940000000    -4.683000000
O    -1.187000000    -0.194000000    -5.407000000
O    -0.172000000    -2.025000000    -5.147000000
