14
-84.00268
C     0.206000000    -1.174000000    -2.180000000
H     0.941000000    -1.722000000    -2.765000000
C     0.643000000    -0.871000000    -0.912000000
H     1.476000000    -1.392000000    -0.447000000
C    -0.101000000     0.075000000    -0.163000000
H     0.270000000     0.352000000     0.746000000
C    -1.249000000     0.664000000    -0.696000000
H    -1.851000000     1.338000000    -0.090000000
C    -1.650000000     0.355000000    -2.000000000
H    -2.539000000     0.769000000    -2.469000000
C    -0.863000000    -0.552000000    -2.803000000
C    -1.205000000    -0.864000000    -4.166000000
O    -2.249000000    -0.443000000    -4.655000000
O    -0.514000000    -1.576000000    -4.911000000
