14
-84.06164
C     0.549000000    -0.696000000    -2.241000000
H     1.286000000    -1.088000000    -2.938000000
C     0.659000000    -0.905000000    -0.881000000
H     1.513000000    -1.409000000    -0.436000000
C    -0.210000000    -0.220000000    -0.042000000
H     0.036000000    -0.141000000     1.052000000
C    -1.380000000     0.419000000    -0.527000000
H    -2.094000000     0.957000000     0.091000000
C    -1.616000000     0.350000000    -1.930000000
H    -2.381000000     0.936000000    -2.433000000
C    -0.679000000    -0.237000000    -2.826000000
C    -0.902000000    -0.357000000    -4.265000000
O    -1.635000000     0.396000000    -4.877000000
O    -0.439000000    -1.357000000    -4.868000000
