14
-78.61950
C     0.380000000    -0.122000000    -2.361000000
H     1.159000000    -0.469000000    -3.034000000
C     0.645000000    -0.130000000    -1.073000000
H     1.641000000    -0.367000000    -0.709000000
C    -0.349000000     0.103000000    -0.137000000
H    -0.153000000    -0.024000000     0.896000000
C    -1.629000000     0.395000000    -0.567000000
H    -2.450000000     0.426000000     0.145000000
C    -1.890000000     0.448000000    -1.920000000
H    -2.834000000     0.689000000    -2.401000000
C    -0.914000000     0.142000000    -2.825000000
C    -1.257000000     0.151000000    -4.304000000
O    -2.329000000     0.537000000    -4.747000000
O    -0.611000000    -0.558000000    -5.041000000
