14
-90.14605
C     0.170000000    -0.647000000    -2.357000000
H     0.898000000    -1.157000000    -2.983000000
C     0.359000000    -0.360000000    -0.993000000
H     1.187000000    -0.853000000    -0.490000000
C    -0.497000000     0.584000000    -0.429000000
H    -0.300000000     0.886000000     0.642000000
C    -1.599000000     1.082000000    -1.148000000
H    -2.212000000     1.827000000    -0.647000000
C    -1.796000000     0.674000000    -2.485000000
H    -2.594000000     1.174000000    -3.028000000
C    -0.907000000    -0.159000000    -3.124000000
C    -1.158000000    -0.537000000    -4.555000000
O    -2.120000000    -0.086000000    -5.176000000
O    -0.356000000    -1.273000000    -5.082000000
