14
-87.18996
C     1.312000000    -2.335000000    -2.797000000
H     1.939000000    -3.179000000    -3.071000000
C     0.902000000    -2.116000000    -1.486000000
H     1.305000000    -2.752000000    -0.701000000
C     0.162000000    -0.957000000    -1.159000000
H    -0.147000000    -0.655000000    -0.138000000
C    -0.128000000    -0.074000000    -2.149000000
H    -0.746000000     0.778000000    -1.880000000
C     0.092000000    -0.316000000    -3.511000000
H    -0.163000000     0.339000000    -4.340000000
C     0.902000000    -1.423000000    -3.807000000
C     1.338000000    -1.603000000    -5.215000000
O     1.152000000    -0.746000000    -6.056000000
O     1.874000000    -2.641000000    -5.528000000
