14
-89.02469
C    -0.395000000     0.899000000    -2.733000000
H    -1.113000000     0.988000000    -3.545000000
C    -0.929000000     0.574000000    -1.494000000
H    -1.988000000     0.333000000    -1.455000000
C    -0.077000000     0.408000000    -0.422000000
H    -0.432000000     0.029000000     0.559000000
C     1.245000000     0.854000000    -0.479000000
H     1.860000000     0.809000000     0.417000000
C     1.770000000     1.362000000    -1.687000000
H     2.787000000     1.747000000    -1.671000000
C     0.945000000     1.339000000    -2.766000000
C     1.389000000     2.002000000    -4.110000000
O     2.477000000     2.554000000    -4.138000000
O     0.636000000     2.094000000    -5.089000000
