14
-83.63329
C     0.608000000    -0.859000000    -1.856000000
H     1.451000000    -1.128000000    -2.487000000
C     0.631000000    -0.753000000    -0.507000000
H     1.533000000    -1.038000000     0.029000000
C    -0.407000000    -0.199000000     0.137000000
H    -0.322000000    -0.021000000     1.226000000
C    -1.497000000     0.302000000    -0.540000000
H    -2.263000000     0.877000000    -0.028000000
C    -1.535000000     0.204000000    -1.936000000
H    -2.354000000     0.646000000    -2.498000000
C    -0.489000000    -0.410000000    -2.622000000
C    -0.559000000    -0.557000000    -4.100000000
O    -1.539000000    -0.189000000    -4.732000000
O     0.246000000    -1.232000000    -4.733000000
