14
-72.69833
C     0.715000000    -0.991000000    -2.163000000
H     1.259000000    -1.635000000    -2.848000000
C     0.998000000    -0.990000000    -0.775000000
H     1.837000000    -1.491000000    -0.299000000
C     0.208000000    -0.341000000     0.116000000
H     0.546000000    -0.377000000     1.171000000
C    -0.880000000     0.345000000    -0.383000000
H    -1.480000000     0.827000000     0.384000000
C    -1.148000000     0.504000000    -1.786000000
H    -1.938000000     1.139000000    -2.179000000
C    -0.348000000    -0.261000000    -2.654000000
C    -0.774000000    -0.298000000    -4.182000000
O    -1.447000000     0.572000000    -4.692000000
O    -0.359000000    -1.080000000    -4.949000000
