14
-82.06967
C     0.690000000    -1.280000000    -2.345000000
H     1.186000000    -2.046000000    -2.935000000
C     0.755000000    -1.221000000    -0.933000000
H     1.385000000    -1.946000000    -0.425000000
C     0.205000000    -0.235000000    -0.189000000
H     0.124000000    -0.318000000     0.875000000
C    -0.514000000     0.751000000    -0.866000000
H    -1.145000000     1.480000000    -0.365000000
C    -0.533000000     0.712000000    -2.294000000
H    -1.182000000     1.390000000    -2.842000000
C     0.064000000    -0.256000000    -3.035000000
C    -0.153000000    -0.335000000    -4.539000000
O    -0.620000000     0.582000000    -5.146000000
O     0.023000000    -1.378000000    -5.115000000
