14
-80.93227
C     0.851000000    -1.323000000    -1.815000000
H     1.262000000    -2.322000000    -1.928000000
C     0.699000000    -0.780000000    -0.512000000
H     1.124000000    -1.338000000     0.318000000
C     0.016000000     0.362000000    -0.257000000
H    -0.189000000     0.723000000     0.758000000
C    -0.699000000     0.985000000    -1.279000000
H    -1.317000000     1.815000000    -0.948000000
C    -0.657000000     0.514000000    -2.596000000
H    -1.178000000     0.979000000    -3.429000000
C     0.149000000    -0.632000000    -2.878000000
C     0.374000000    -1.043000000    -4.350000000
O    -0.220000000    -0.549000000    -5.264000000
O     1.077000000    -1.987000000    -4.583000000
