14
-83.61113
C     1.804000000    -0.920000000    -1.336000000
H     2.541000000    -1.709000000    -1.466000000
C     1.208000000    -0.727000000    -0.107000000
H     1.393000000    -1.403000000     0.724000000
C     0.293000000     0.354000000     0.022000000
H    -0.177000000     0.597000000     0.953000000
C    -0.007000000     1.138000000    -1.036000000
H    -0.657000000     2.009000000    -1.002000000
C     0.608000000     0.794000000    -2.256000000
H     0.269000000     1.298000000    -3.157000000
C     1.542000000    -0.130000000    -2.429000000
C     2.059000000    -0.500000000    -3.789000000
O     1.687000000     0.031000000    -4.812000000
O     2.743000000    -1.512000000    -3.856000000
