14
-84.36417
C     1.692000000    -0.986000000    -1.576000000
H     2.570000000    -1.612000000    -1.435000000
C     0.735000000    -0.933000000    -0.513000000
H     0.819000000    -1.520000000     0.398000000
C    -0.421000000    -0.200000000    -0.573000000
H    -1.266000000    -0.351000000     0.160000000
C    -0.651000000     0.592000000    -1.722000000
H    -1.643000000     1.037000000    -1.724000000
C     0.226000000     0.571000000    -2.787000000
H     0.058000000     1.166000000    -3.681000000
C     1.389000000    -0.242000000    -2.714000000
C     2.365000000    -0.285000000    -3.835000000
O     2.203000000     0.439000000    -4.817000000
O     3.231000000    -1.081000000    -3.802000000
