14
-82.09563
C     1.275000000    -0.816000000    -1.571000000
H     2.067000000    -1.532000000    -1.775000000
C     0.593000000    -0.672000000    -0.271000000
H     0.996000000    -1.189000000     0.596000000
C    -0.377000000     0.306000000    -0.092000000
H    -0.812000000     0.625000000     0.908000000
C    -0.804000000     1.022000000    -1.192000000
H    -1.530000000     1.828000000    -1.128000000
C    -0.255000000     0.796000000    -2.476000000
H    -0.585000000     1.402000000    -3.316000000
C     0.797000000    -0.133000000    -2.701000000
C     1.413000000    -0.238000000    -4.112000000
O     1.137000000     0.606000000    -4.924000000
O     2.214000000    -1.072000000    -4.406000000
