14
-84.33839
C     2.219000000    -1.113000000    -1.426000000
H     2.999000000    -1.843000000    -1.627000000
C     1.522000000    -1.202000000    -0.172000000
H     1.757000000    -1.962000000     0.569000000
C     0.452000000    -0.376000000     0.066000000
H    -0.066000000    -0.429000000     0.965000000
C     0.098000000     0.545000000    -0.950000000
H    -0.863000000     1.016000000    -0.765000000
C     0.783000000     0.683000000    -2.130000000
H     0.580000000     1.405000000    -2.917000000
C     1.856000000    -0.144000000    -2.363000000
C     2.425000000    -0.132000000    -3.715000000
O     2.085000000     0.689000000    -4.537000000
O     3.098000000    -1.080000000    -4.093000000
