14
-82.78160
C     1.606000000    -0.550000000    -1.997000000
H     2.438000000    -1.127000000    -2.394000000
C     1.289000000    -0.440000000    -0.629000000
H     1.982000000    -0.865000000     0.093000000
C     0.223000000     0.299000000    -0.184000000
H    -0.073000000     0.325000000     0.894000000
C    -0.618000000     0.876000000    -1.083000000
H    -1.443000000     1.450000000    -0.670000000
C    -0.264000000     0.873000000    -2.446000000
H    -0.925000000     1.434000000    -3.102000000
C     0.803000000     0.131000000    -2.953000000
C     1.102000000     0.044000000    -4.415000000
O     0.470000000     0.694000000    -5.220000000
O     1.873000000    -0.748000000    -4.853000000
