14
-90.97828
C     2.241000000    -0.438000000    -2.041000000
H     3.232000000    -0.816000000    -2.277000000
C     1.688000000    -0.682000000    -0.770000000
H     2.270000000    -1.241000000    -0.043000000
C     0.518000000    -0.110000000    -0.293000000
H     0.233000000    -0.147000000     0.764000000
C    -0.367000000     0.496000000    -1.225000000
H    -1.404000000     0.740000000    -1.010000000
C     0.139000000     0.726000000    -2.508000000
H    -0.474000000     1.225000000    -3.255000000
C     1.422000000     0.277000000    -2.925000000
C     2.049000000     0.500000000    -4.304000000
O     1.696000000     1.455000000    -4.995000000
O     2.936000000    -0.270000000    -4.713000000
