14
-90.00651
C     1.860000000    -0.458000000    -1.751000000
H     2.730000000    -1.103000000    -1.840000000
C     1.188000000    -0.331000000    -0.510000000
H     1.504000000    -0.870000000     0.380000000
C     0.046000000     0.435000000    -0.442000000
H    -0.434000000     0.611000000     0.550000000
C    -0.367000000     1.227000000    -1.522000000
H    -1.230000000     1.874000000    -1.389000000
C     0.365000000     1.177000000    -2.709000000
H    -0.016000000     1.693000000    -3.586000000
C     1.459000000     0.332000000    -2.842000000
C     2.215000000     0.162000000    -4.152000000
O     1.785000000     0.572000000    -5.190000000
O     3.279000000    -0.508000000    -4.192000000
