14
-82.03698
C     1.410000000    -1.495000000    -1.775000000
H     2.107000000    -2.131000000    -2.315000000
C     1.774000000    -0.864000000    -0.561000000
H     2.785000000    -0.663000000    -0.215000000
C     0.844000000    -0.125000000     0.151000000
H     1.084000000     0.292000000     1.126000000
C    -0.453000000    -0.085000000    -0.306000000
H    -1.221000000     0.372000000     0.313000000
C    -0.835000000    -0.700000000    -1.525000000
H    -1.875000000    -0.651000000    -1.839000000
C     0.064000000    -1.415000000    -2.278000000
C    -0.328000000    -2.103000000    -3.655000000
O    -1.353000000    -1.751000000    -4.223000000
O     0.537000000    -2.616000000    -4.307000000
