14
-81.56741
C     0.839000000    -1.789000000    -1.235000000
H     1.756000000    -2.342000000    -1.050000000
C     0.402000000    -0.893000000    -0.320000000
H     0.879000000    -0.704000000     0.638000000
C    -0.652000000    -0.044000000    -0.617000000
H    -1.040000000     0.727000000     0.106000000
C    -1.244000000    -0.133000000    -1.900000000
H    -1.956000000     0.668000000    -2.081000000
C    -0.734000000    -0.969000000    -2.869000000
H    -1.159000000    -0.773000000    -3.850000000
C     0.259000000    -1.849000000    -2.516000000
C     0.875000000    -2.725000000    -3.526000000
O     0.288000000    -2.937000000    -4.550000000
O     1.943000000    -3.199000000    -3.275000000
