14
-87.44802
C     1.142000000    -1.891000000    -1.718000000
H     1.850000000    -2.715000000    -1.753000000
C     0.984000000    -1.045000000    -0.591000000
H     1.630000000    -1.145000000     0.278000000
C    -0.028000000    -0.129000000    -0.587000000
H    -0.174000000     0.440000000     0.287000000
C    -0.862000000     0.132000000    -1.671000000
H    -1.562000000     0.963000000    -1.694000000
C    -0.718000000    -0.764000000    -2.796000000
H    -1.329000000    -0.686000000    -3.692000000
C     0.318000000    -1.740000000    -2.826000000
C     0.714000000    -2.483000000    -4.123000000
O    -0.135000000    -2.592000000    -4.954000000
O     1.788000000    -3.042000000    -4.190000000
