14
-89.45497
C     0.861000000    -1.608000000    -1.981000000
H     1.766000000    -2.211000000    -1.955000000
C     0.575000000    -0.733000000    -0.967000000
H     1.301000000    -0.627000000    -0.165000000
C    -0.594000000    -0.060000000    -0.870000000
H    -0.821000000     0.553000000    -0.010000000
C    -1.504000000    -0.186000000    -1.890000000
H    -2.399000000     0.429000000    -1.941000000
C    -1.196000000    -0.960000000    -3.052000000
H    -1.792000000    -1.000000000    -3.960000000
C    -0.063000000    -1.765000000    -3.038000000
C     0.338000000    -2.511000000    -4.334000000
O    -0.429000000    -2.450000000    -5.337000000
O     1.349000000    -3.164000000    -4.384000000
