14
-85.40351
C     0.807000000    -2.028000000    -1.657000000
H     1.533000000    -2.817000000    -1.837000000
C     1.074000000    -1.218000000    -0.555000000
H     1.969000000    -1.388000000     0.039000000
C     0.127000000    -0.263000000    -0.222000000
H     0.340000000     0.393000000     0.666000000
C    -1.035000000    -0.082000000    -1.067000000
H    -1.706000000     0.729000000    -0.796000000
C    -1.129000000    -0.871000000    -2.211000000
H    -1.919000000    -0.654000000    -2.926000000
C    -0.259000000    -1.892000000    -2.563000000
C    -0.329000000    -2.666000000    -3.868000000
O    -1.404000000    -2.588000000    -4.450000000
O     0.512000000    -3.409000000    -4.321000000
