14
-77.31402
C     1.194000000    -1.690000000    -2.154000000
H     2.024000000    -2.266000000    -2.555000000
C     1.239000000    -1.001000000    -0.986000000
H     2.234000000    -0.947000000    -0.551000000
C     0.168000000    -0.207000000    -0.571000000
H     0.398000000     0.472000000     0.323000000
C    -1.048000000    -0.297000000    -1.274000000
H    -1.867000000     0.213000000    -0.774000000
C    -1.054000000    -1.018000000    -2.458000000
H    -1.905000000    -1.171000000    -3.117000000
C     0.068000000    -1.678000000    -2.965000000
C    -0.018000000    -2.453000000    -4.265000000
O    -1.025000000    -2.727000000    -4.891000000
O     0.989000000    -2.921000000    -4.701000000
