14
-88.52185
C     1.358000000    -1.486000000    -1.786000000
H     2.260000000    -2.058000000    -1.989000000
C     1.345000000    -0.849000000    -0.567000000
H     2.200000000    -1.010000000     0.085000000
C     0.304000000    -0.063000000    -0.116000000
H     0.300000000     0.478000000     0.910000000
C    -0.856000000    -0.077000000    -0.878000000
H    -1.708000000     0.451000000    -0.459000000
C    -0.878000000    -0.748000000    -2.096000000
H    -1.747000000    -0.634000000    -2.741000000
C     0.244000000    -1.406000000    -2.622000000
C     0.247000000    -2.136000000    -3.931000000
O    -0.722000000    -2.124000000    -4.654000000
O     1.297000000    -2.674000000    -4.289000000
