14
-84.95180
C     1.383000000    -2.083000000    -1.338000000
H     2.194000000    -2.750000000    -1.620000000
C     1.614000000    -1.092000000    -0.351000000
H     2.608000000    -1.021000000     0.083000000
C     0.592000000    -0.223000000     0.023000000
H     0.809000000     0.481000000     0.810000000
C    -0.600000000    -0.160000000    -0.738000000
H    -1.248000000     0.670000000    -0.469000000
C    -0.789000000    -1.107000000    -1.758000000
H    -1.694000000    -1.044000000    -2.357000000
C     0.144000000    -2.095000000    -2.023000000
C    -0.109000000    -3.005000000    -3.225000000
O    -0.997000000    -2.788000000    -4.018000000
O     0.828000000    -3.693000000    -3.630000000
