14
-82.66571
C     0.888000000    -2.404000000    -1.042000000
H     1.830000000    -2.844000000    -0.724000000
C     0.465000000    -1.251000000    -0.328000000
H     1.005000000    -0.816000000     0.508000000
C    -0.650000000    -0.508000000    -0.723000000
H    -0.952000000     0.369000000    -0.067000000
C    -1.411000000    -0.982000000    -1.794000000
H    -2.340000000    -0.493000000    -2.075000000
C    -0.989000000    -2.178000000    -2.410000000
H    -1.578000000    -2.580000000    -3.230000000
C     0.112000000    -2.919000000    -2.053000000
C     0.644000000    -4.133000000    -2.752000000
O     0.265000000    -4.296000000    -3.876000000
O     1.711000000    -4.716000000    -2.398000000
