14
-82.85573
C     1.055000000    -1.971000000    -1.112000000
H     1.966000000    -2.564000000    -1.093000000
C     0.879000000    -0.829000000    -0.315000000
H     1.512000000    -0.583000000     0.534000000
C    -0.182000000     0.078000000    -0.579000000
H    -0.148000000     0.966000000     0.058000000
C    -1.140000000    -0.294000000    -1.539000000
H    -2.006000000     0.345000000    -1.694000000
C    -0.995000000    -1.427000000    -2.299000000
H    -1.810000000    -1.740000000    -2.946000000
C     0.143000000    -2.330000000    -2.110000000
C     0.454000000    -3.530000000    -2.953000000
O    -0.296000000    -3.808000000    -3.842000000
O     1.423000000    -4.188000000    -2.739000000
