14
-79.76744
C     0.501000000    -2.208000000    -1.187000000
H     1.324000000    -2.858000000    -0.902000000
C     0.325000000    -1.021000000    -0.426000000
H     1.018000000    -0.758000000     0.369000000
C    -0.778000000    -0.197000000    -0.689000000
H    -0.961000000     0.709000000    -0.100000000
C    -1.606000000    -0.625000000    -1.768000000
H    -2.438000000     0.005000000    -2.075000000
C    -1.464000000    -1.817000000    -2.426000000
H    -2.155000000    -2.154000000    -3.194000000
C    -0.407000000    -2.589000000    -2.145000000
C    -0.157000000    -3.785000000    -2.953000000
O    -0.919000000    -4.155000000    -3.860000000
O     0.712000000    -4.583000000    -2.708000000
