14
-89.90389
C     0.941000000    -2.445000000    -1.277000000
H     1.728000000    -3.177000000    -1.115000000
C     0.944000000    -1.418000000    -0.302000000
H     1.637000000    -1.333000000     0.532000000
C     0.056000000    -0.410000000    -0.474000000
H    -0.014000000     0.355000000     0.269000000
C    -0.806000000    -0.351000000    -1.573000000
H    -1.541000000     0.443000000    -1.675000000
C    -0.752000000    -1.286000000    -2.583000000
H    -1.421000000    -1.237000000    -3.438000000
C     0.074000000    -2.407000000    -2.376000000
C     0.232000000    -3.443000000    -3.410000000
O    -0.409000000    -3.346000000    -4.462000000
O     1.115000000    -4.298000000    -3.274000000
