14
-91.32118
C     1.689000000    -1.524000000    -0.366000000
H     2.676000000    -1.958000000    -0.230000000
C     1.252000000    -0.443000000     0.379000000
H     1.903000000     0.032000000     1.109000000
C    -0.008000000     0.078000000     0.123000000
H    -0.397000000     1.008000000     0.645000000
C    -0.841000000    -0.414000000    -0.918000000
H    -1.819000000     0.034000000    -1.073000000
C    -0.379000000    -1.526000000    -1.697000000
H    -0.946000000    -1.939000000    -2.527000000
C     0.916000000    -2.033000000    -1.396000000
C     1.444000000    -3.263000000    -2.163000000
O     0.977000000    -3.467000000    -3.245000000
O     2.158000000    -4.084000000    -1.566000000
