14
-86.19385
C    -0.027000000    -2.930000000    -1.592000000
H     0.447000000    -3.891000000    -1.774000000
C     0.385000000    -2.265000000    -0.453000000
H     1.011000000    -2.784000000     0.268000000
C     0.014000000    -0.903000000    -0.319000000
H     0.339000000    -0.457000000     0.618000000
C    -0.807000000    -0.304000000    -1.206000000
H    -1.311000000     0.626000000    -0.960000000
C    -1.244000000    -1.078000000    -2.270000000
H    -2.055000000    -0.695000000    -2.885000000
C    -0.831000000    -2.396000000    -2.596000000
C    -1.160000000    -3.214000000    -3.837000000
O    -1.961000000    -2.720000000    -4.597000000
O    -0.675000000    -4.336000000    -3.972000000
