14
-89.28817
C     0.380000000    -2.659000000    -1.617000000
H     0.901000000    -3.574000000    -1.351000000
C     0.329000000    -1.566000000    -0.701000000
H     0.817000000    -1.731000000     0.256000000
C    -0.302000000    -0.355000000    -1.048000000
H    -0.369000000     0.468000000    -0.286000000
C    -0.895000000    -0.268000000    -2.288000000
H    -1.528000000     0.559000000    -2.600000000
C    -0.890000000    -1.295000000    -3.220000000
H    -1.438000000    -1.290000000    -4.159000000
C    -0.180000000    -2.488000000    -2.919000000
C    -0.073000000    -3.614000000    -3.882000000
O    -0.593000000    -3.425000000    -4.972000000
O     0.410000000    -4.691000000    -3.603000000
