14
-87.70518
C    -0.189000000    -1.913000000    -1.426000000
H    -0.501000000    -2.950000000    -1.525000000
C     0.218000000    -1.387000000    -0.200000000
H     0.306000000    -1.967000000     0.715000000
C     0.338000000     0.014000000    -0.158000000
H     0.508000000     0.512000000     0.785000000
C     0.126000000     0.812000000    -1.277000000
H     0.337000000     1.877000000    -1.214000000
C    -0.274000000     0.257000000    -2.459000000
H    -0.383000000     0.835000000    -3.373000000
C    -0.268000000    -1.113000000    -2.530000000
C    -0.446000000    -1.793000000    -3.885000000
O    -0.780000000    -1.107000000    -4.827000000
O    -0.047000000    -2.946000000    -4.029000000
