14
-85.04819
C    -0.233000000    -1.243000000    -0.539000000
H    -0.343000000    -2.320000000    -0.440000000
C    -0.487000000    -0.452000000     0.573000000
H    -0.865000000    -0.821000000     1.523000000
C    -0.042000000     0.838000000     0.563000000
H    -0.167000000     1.525000000     1.385000000
C     0.573000000     1.347000000    -0.613000000
H     0.833000000     2.402000000    -0.609000000
C     0.841000000     0.562000000    -1.674000000
H     1.289000000     0.978000000    -2.572000000
C     0.348000000    -0.735000000    -1.701000000
C     0.555000000    -1.570000000    -2.981000000
O     0.759000000    -1.089000000    -4.068000000
O     0.454000000    -2.765000000    -2.878000000
