14
-89.81131
C    -0.508000000    -0.180000000    -2.465000000
H    -1.049000000    -0.427000000    -3.375000000
C    -1.086000000    -0.216000000    -1.215000000
H    -2.149000000    -0.443000000    -1.212000000
C    -0.383000000    -0.012000000    -0.052000000
H    -0.893000000    -0.060000000     0.968000000
C     1.002000000     0.222000000    -0.105000000
H     1.562000000     0.365000000     0.816000000
C     1.642000000     0.224000000    -1.316000000
H     2.714000000     0.394000000    -1.382000000
C     0.882000000     0.056000000    -2.536000000
C     1.587000000     0.023000000    -3.880000000
O     2.821000000    -0.025000000    -3.882000000
O     0.976000000     0.360000000    -4.875000000
