14
-88.91470
C     1.279000000    -2.433000000    -1.083000000
H     1.217000000    -3.493000000    -0.851000000
C     0.263000000    -1.606000000    -0.636000000
H    -0.522000000    -2.083000000    -0.054000000
C     0.267000000    -0.281000000    -0.908000000
H    -0.507000000     0.357000000    -0.513000000
C     1.288000000     0.237000000    -1.710000000
H     1.396000000     1.307000000    -1.871000000
C     2.295000000    -0.580000000    -2.156000000
H     3.142000000    -0.063000000    -2.601000000
C     2.313000000    -1.970000000    -1.941000000
C     3.341000000    -2.913000000    -2.694000000
O     4.227000000    -2.436000000    -3.417000000
O     3.252000000    -4.120000000    -2.554000000
