14
-80.38089
C     1.284000000    -2.312000000    -0.749000000
H     1.234000000    -3.373000000    -0.518000000
C     0.399000000    -1.392000000    -0.215000000
H    -0.136000000    -1.736000000     0.666000000
C     0.413000000    -0.085000000    -0.670000000
H    -0.081000000     0.717000000    -0.043000000
C     1.212000000     0.217000000    -1.732000000
H     1.234000000     1.242000000    -2.093000000
C     1.993000000    -0.729000000    -2.393000000
H     2.710000000    -0.402000000    -3.141000000
C     2.034000000    -2.039000000    -1.887000000
C     2.868000000    -3.129000000    -2.507000000
O     3.429000000    -3.011000000    -3.600000000
O     2.741000000    -4.274000000    -2.130000000
