14
-87.51737
C    -0.651000000    -0.285000000    -2.251000000
H    -1.238000000    -0.586000000    -3.115000000
C    -1.242000000    -0.489000000    -1.036000000
H    -2.233000000    -0.914000000    -0.898000000
C    -0.543000000    -0.086000000     0.147000000
H    -0.926000000    -0.445000000     1.162000000
C     0.701000000     0.488000000     0.075000000
H     1.191000000     0.705000000     1.020000000
C     1.322000000     0.713000000    -1.184000000
H     2.310000000     1.165000000    -1.227000000
C     0.619000000     0.373000000    -2.387000000
C     1.138000000     0.753000000    -3.720000000
O     2.267000000     1.183000000    -3.797000000
O     0.455000000     0.640000000    -4.734000000
