14
-85.69504
C     1.398000000    -2.153000000    -0.602000000
H     1.509000000    -3.202000000    -0.339000000
C     0.592000000    -1.278000000     0.107000000
H    -0.044000000    -1.602000000     0.927000000
C     0.582000000     0.093000000    -0.060000000
H    -0.070000000     0.700000000     0.560000000
C     1.358000000     0.620000000    -1.040000000
H     1.450000000     1.647000000    -1.382000000
C     2.200000000    -0.187000000    -1.786000000
H     2.816000000     0.286000000    -2.546000000
C     2.211000000    -1.585000000    -1.574000000
C     3.146000000    -2.408000000    -2.353000000
O     3.699000000    -1.894000000    -3.309000000
O     3.365000000    -3.591000000    -2.121000000
