14
-74.52918
C     0.759000000    -2.401000000    -1.126000000
H     0.697000000    -3.485000000    -1.180000000
C    -0.332000000    -1.785000000    -0.525000000
H    -1.123000000    -2.417000000    -0.129000000
C    -0.414000000    -0.369000000    -0.559000000
H    -1.271000000     0.176000000    -0.189000000
C     0.669000000     0.330000000    -1.126000000
H     0.600000000     1.414000000    -1.075000000
C     1.638000000    -0.308000000    -1.793000000
H     2.374000000     0.281000000    -2.335000000
C     1.744000000    -1.691000000    -1.815000000
C     2.664000000    -2.412000000    -2.705000000
O     3.556000000    -1.843000000    -3.234000000
O     2.438000000    -3.512000000    -3.107000000
