14
-88.43624
C    -0.397000000    -0.154000000    -1.453000000
H    -1.215000000    -0.555000000    -2.047000000
C    -0.387000000    -0.062000000    -0.072000000
H    -1.250000000    -0.462000000     0.455000000
C     0.713000000     0.439000000     0.577000000
H     0.779000000     0.503000000     1.711000000
C     1.776000000     0.862000000    -0.120000000
H     2.615000000     1.239000000     0.459000000
C     1.867000000     0.808000000    -1.535000000
H     2.735000000     1.127000000    -2.106000000
C     0.674000000     0.374000000    -2.244000000
C     0.595000000     0.375000000    -3.779000000
O     1.584000000     0.795000000    -4.432000000
O    -0.436000000     0.033000000    -4.278000000
