14
-76.82179
C     0.291000000    -1.856000000    -1.334000000
H    -0.502000000    -2.417000000    -1.822000000
C    -0.190000000    -0.933000000    -0.418000000
H    -1.267000000    -0.828000000    -0.319000000
C     0.679000000     0.073000000     0.152000000
H     0.442000000     0.766000000     0.882000000
C     2.060000000    -0.047000000    -0.091000000
H     2.750000000     0.727000000     0.233000000
C     2.520000000    -1.075000000    -0.896000000
H     3.584000000    -1.247000000    -1.031000000
C     1.685000000    -1.950000000    -1.571000000
C     2.282000000    -2.951000000    -2.539000000
O     3.323000000    -2.754000000    -3.074000000
O     1.640000000    -3.884000000    -2.878000000
