14
-84.80944
C    -0.361000000    -1.325000000    -1.568000000
H    -1.100000000    -1.720000000    -2.261000000
C    -0.647000000    -0.282000000    -0.705000000
H    -1.671000000     0.078000000    -0.643000000
C     0.351000000     0.285000000     0.040000000
H     0.141000000     1.074000000     0.753000000
C     1.626000000    -0.260000000     0.110000000
H     2.404000000     0.267000000     0.657000000
C     1.963000000    -1.280000000    -0.751000000
H     2.989000000    -1.635000000    -0.783000000
C     0.960000000    -1.845000000    -1.594000000
C     1.388000000    -3.012000000    -2.462000000
O     2.468000000    -3.504000000    -2.357000000
O     0.750000000    -3.293000000    -3.511000000
