14
-88.35448
C    -0.137000000    -1.846000000    -1.012000000
H    -0.814000000    -2.428000000    -1.631000000
C    -0.629000000    -0.830000000    -0.161000000
H    -1.661000000    -0.497000000    -0.088000000
C     0.291000000     0.055000000     0.367000000
H    -0.086000000     0.818000000     1.043000000
C     1.668000000    -0.149000000     0.178000000
H     2.391000000     0.565000000     0.564000000
C     2.104000000    -1.152000000    -0.612000000
H     3.183000000    -1.236000000    -0.722000000
C     1.191000000    -2.070000000    -1.207000000
C     1.736000000    -3.070000000    -2.202000000
O     2.932000000    -3.227000000    -2.271000000
O     0.908000000    -3.508000000    -2.976000000
