14
-79.26213
C     0.595000000    -1.725000000    -0.523000000
H     0.850000000    -2.626000000     0.029000000
C     0.060000000    -0.635000000     0.199000000
H    -0.058000000    -0.666000000     1.280000000
C    -0.196000000     0.560000000    -0.470000000
H    -0.611000000     1.443000000     0.087000000
C     0.100000000     0.659000000    -1.867000000
H    -0.100000000     1.604000000    -2.365000000
C     0.516000000    -0.485000000    -2.534000000
H     0.585000000    -0.475000000    -3.618000000
C     0.695000000    -1.645000000    -1.868000000
C     1.219000000    -2.839000000    -2.670000000
O     1.767000000    -2.741000000    -3.732000000
O     0.865000000    -3.968000000    -2.396000000
