14
-78.42783
C    -0.144000000    -0.541000000    -2.107000000
H    -0.941000000    -0.748000000    -2.816000000
C    -0.518000000    -0.034000000    -0.864000000
H    -1.501000000    -0.187000000    -0.426000000
C     0.459000000     0.332000000     0.072000000
H     0.299000000     0.471000000     1.123000000
C     1.844000000     0.278000000    -0.353000000
H     2.678000000     0.622000000     0.253000000
C     2.154000000    -0.085000000    -1.656000000
H     3.190000000    -0.146000000    -1.980000000
C     1.163000000    -0.511000000    -2.556000000
C     1.489000000    -0.923000000    -3.976000000
O     2.459000000    -0.481000000    -4.471000000
O     0.689000000    -1.486000000    -4.688000000
