14
-79.60712
C    -0.960000000    -2.224000000    -1.228000000
H    -1.700000000    -2.909000000    -1.635000000
C    -1.386000000    -0.915000000    -0.931000000
H    -2.376000000    -0.558000000    -1.205000000
C    -0.545000000    -0.036000000    -0.218000000
H    -0.855000000     1.004000000     0.100000000
C     0.701000000    -0.442000000     0.214000000
H     1.277000000     0.289000000     0.775000000
C     1.146000000    -1.756000000    -0.105000000
H     2.171000000    -2.035000000     0.125000000
C     0.381000000    -2.621000000    -0.871000000
C     1.019000000    -3.899000000    -1.433000000
O     2.219000000    -4.063000000    -1.435000000
O     0.428000000    -4.707000000    -2.096000000
