14
-82.99245
C    -0.411000000    -2.181000000    -1.189000000
H    -1.029000000    -3.071000000    -1.268000000
C    -0.911000000    -0.978000000    -0.638000000
H    -1.969000000    -0.868000000    -0.417000000
C    -0.066000000     0.107000000    -0.360000000
H    -0.413000000     1.050000000     0.129000000
C     1.239000000    -0.038000000    -0.695000000
H     1.835000000     0.856000000    -0.534000000
C     1.775000000    -1.228000000    -1.203000000
H     2.827000000    -1.247000000    -1.477000000
C     0.987000000    -2.354000000    -1.343000000
C     1.571000000    -3.734000000    -1.786000000
O     2.763000000    -3.866000000    -1.900000000
O     0.895000000    -4.684000000    -2.049000000
