14
-92.74025
C     0.227000000    -1.702000000    -0.198000000
H    -0.586000000    -2.380000000    -0.445000000
C    -0.058000000    -0.545000000     0.549000000
H    -1.092000000    -0.398000000     0.851000000
C     0.894000000     0.447000000     0.736000000
H     0.651000000     1.387000000     1.280000000
C     2.188000000     0.222000000     0.251000000
H     2.950000000     0.943000000     0.534000000
C     2.479000000    -0.851000000    -0.540000000
H     3.490000000    -0.885000000    -0.937000000
C     1.534000000    -1.870000000    -0.745000000
C     1.898000000    -2.994000000    -1.698000000
O     3.027000000    -3.094000000    -2.162000000
O     0.984000000    -3.751000000    -2.003000000
