14
-88.85089
C     1.685000000    -1.060000000    -1.117000000
H     2.567000000    -1.282000000    -1.711000000
C     1.732000000    -0.213000000    -0.004000000
H     2.661000000     0.256000000     0.308000000
C     0.578000000     0.333000000     0.575000000
H     0.807000000     1.066000000     1.369000000
C    -0.694000000    -0.062000000     0.053000000
H    -1.621000000     0.396000000     0.388000000
C    -0.765000000    -1.025000000    -0.995000000
H    -1.675000000    -1.444000000    -1.416000000
C     0.415000000    -1.513000000    -1.617000000
C     0.356000000    -2.447000000    -2.806000000
O    -0.733000000    -2.670000000    -3.411000000
O     1.392000000    -2.946000000    -3.176000000
