14
-82.24633
C     1.694000000    -0.417000000    -2.138000000
H     2.702000000    -0.469000000    -2.542000000
C     1.727000000     0.075000000    -0.814000000
H     2.643000000     0.340000000    -0.292000000
C     0.588000000     0.249000000    -0.080000000
H     0.502000000     0.693000000     0.912000000
C    -0.633000000    -0.222000000    -0.599000000
H    -1.517000000    -0.195000000     0.033000000
C    -0.677000000    -0.691000000    -1.908000000
H    -1.682000000    -0.898000000    -2.269000000
C     0.474000000    -0.853000000    -2.676000000
C     0.459000000    -1.776000000    -3.865000000
O    -0.545000000    -1.756000000    -4.542000000
O     1.401000000    -2.441000000    -4.235000000
