14
-84.02425
C    -0.553000000    -0.515000000    -2.221000000
H    -1.206000000    -1.054000000    -2.902000000
C    -1.051000000    -0.290000000    -0.934000000
H    -2.125000000    -0.337000000    -0.772000000
C    -0.241000000     0.308000000     0.032000000
H    -0.715000000     0.455000000     0.998000000
C     1.107000000     0.668000000    -0.306000000
H     1.727000000     1.073000000     0.489000000
C     1.527000000     0.558000000    -1.606000000
H     2.527000000     0.909000000    -1.846000000
C     0.754000000    -0.027000000    -2.625000000
C     1.193000000    -0.107000000    -4.114000000
O     2.070000000     0.685000000    -4.491000000
O     0.630000000    -0.768000000    -4.915000000
