14
-82.10849
C     1.343000000    -1.132000000    -1.544000000
H     2.404000000    -1.080000000    -1.776000000
C     0.905000000    -0.270000000    -0.508000000
H     1.577000000     0.445000000    -0.041000000
C    -0.350000000    -0.306000000    -0.042000000
H    -0.705000000     0.412000000     0.728000000
C    -1.283000000    -1.184000000    -0.608000000
H    -2.299000000    -1.239000000    -0.225000000
C    -0.881000000    -2.101000000    -1.517000000
H    -1.605000000    -2.833000000    -1.866000000
C     0.433000000    -2.050000000    -2.084000000
C     0.930000000    -3.099000000    -2.998000000
O     0.080000000    -3.825000000    -3.554000000
O     2.034000000    -3.103000000    -3.459000000
