14
-83.26155
C     1.169000000    -0.726000000    -1.313000000
H     1.973000000    -1.126000000    -1.925000000
C     1.361000000     0.317000000    -0.419000000
H     2.357000000     0.745000000    -0.345000000
C     0.338000000     0.793000000     0.390000000
H     0.391000000     1.616000000     1.063000000
C    -0.921000000     0.328000000     0.199000000
H    -1.652000000     0.697000000     0.914000000
C    -1.168000000    -0.721000000    -0.712000000
H    -2.170000000    -1.143000000    -0.722000000
C    -0.080000000    -1.274000000    -1.467000000
C    -0.272000000    -2.320000000    -2.566000000
O    -1.372000000    -2.554000000    -3.071000000
O     0.682000000    -2.793000000    -3.181000000
