14
-92.64486
C     1.278000000    -1.099000000    -1.579000000
H     2.360000000    -1.203000000    -1.566000000
C     0.718000000    -0.440000000    -0.474000000
H     1.371000000     0.147000000     0.168000000
C    -0.684000000    -0.395000000    -0.435000000
H    -1.128000000     0.211000000     0.382000000
C    -1.445000000    -1.092000000    -1.398000000
H    -2.528000000    -1.136000000    -1.314000000
C    -0.863000000    -1.779000000    -2.463000000
H    -1.433000000    -2.228000000    -3.272000000
C     0.530000000    -1.695000000    -2.617000000
C     1.256000000    -2.378000000    -3.810000000
O     0.594000000    -2.577000000    -4.799000000
O     2.463000000    -2.647000000    -3.725000000
