14
-89.48411
C    -0.713000000    -0.786000000    -2.943000000
H    -1.280000000    -1.381000000    -3.654000000
C    -1.127000000    -0.697000000    -1.609000000
H    -2.093000000    -1.113000000    -1.336000000
C    -0.281000000    -0.092000000    -0.664000000
H    -0.659000000    -0.084000000     0.356000000
C     0.948000000     0.489000000    -1.068000000
H     1.613000000     0.881000000    -0.302000000
C     1.288000000     0.437000000    -2.418000000
H     2.228000000     0.808000000    -2.820000000
C     0.515000000    -0.242000000    -3.369000000
C     0.962000000    -0.301000000    -4.780000000
O     1.594000000     0.615000000    -5.216000000
O     0.609000000    -1.212000000    -5.524000000
