14
-80.93955
C     1.620000000    -1.158000000    -0.811000000
H     2.589000000    -1.463000000    -1.197000000
C     1.497000000    -0.148000000     0.156000000
H     2.380000000     0.360000000     0.534000000
C     0.255000000     0.343000000     0.415000000
H     0.189000000     1.306000000     0.933000000
C    -0.857000000    -0.205000000    -0.187000000
H    -1.845000000     0.107000000     0.142000000
C    -0.717000000    -1.117000000    -1.224000000
H    -1.592000000    -1.522000000    -1.727000000
C     0.467000000    -1.616000000    -1.516000000
C     0.576000000    -2.611000000    -2.625000000
O    -0.392000000    -3.021000000    -3.256000000
O     1.673000000    -2.983000000    -2.970000000
