14
-77.67114
C     1.955000000    -2.461000000    -1.715000000
H     2.954000000    -2.405000000    -2.141000000
C     1.576000000    -1.808000000    -0.616000000
H     2.351000000    -1.221000000    -0.128000000
C     0.314000000    -1.705000000    -0.121000000
H     0.085000000    -1.098000000     0.617000000
C    -0.657000000    -2.508000000    -0.677000000
H    -1.670000000    -2.569000000    -0.288000000
C    -0.361000000    -3.280000000    -1.839000000
H    -1.160000000    -3.900000000    -2.237000000
C     0.961000000    -3.226000000    -2.391000000
C     1.298000000    -3.942000000    -3.690000000
O     0.658000000    -4.943000000    -3.980000000
O     2.429000000    -3.817000000    -4.132000000
