14
-81.32828
C    -0.188000000     0.177000000    -2.201000000
H    -0.655000000    -0.122000000    -3.136000000
C    -0.753000000    -0.266000000    -1.029000000
H    -1.688000000    -0.805000000    -1.160000000
C    -0.171000000     0.000000000     0.192000000
H    -0.631000000    -0.414000000     1.079000000
C     1.154000000     0.539000000     0.183000000
H     1.613000000     0.658000000     1.161000000
C     1.706000000     1.050000000    -1.039000000
H     2.733000000     1.385000000    -0.912000000
C     0.986000000     0.931000000    -2.252000000
C     1.511000000     1.350000000    -3.544000000
O     2.554000000     1.938000000    -3.686000000
O     0.872000000     1.049000000    -4.531000000
