14
-88.57943
C     1.582000000    -1.504000000    -1.375000000
H     2.575000000    -1.291000000    -1.762000000
C     0.908000000    -0.426000000    -0.813000000
H     1.380000000     0.550000000    -0.895000000
C    -0.285000000    -0.611000000    -0.179000000
H    -0.823000000     0.227000000     0.135000000
C    -0.808000000    -1.887000000    -0.072000000
H    -1.733000000    -2.039000000     0.480000000
C    -0.142000000    -2.941000000    -0.664000000
H    -0.529000000    -3.944000000    -0.505000000
C     1.061000000    -2.823000000    -1.301000000
C     1.949000000    -3.930000000    -1.818000000
O     1.419000000    -5.060000000    -1.686000000
O     3.099000000    -3.793000000    -2.136000000
