14
-85.11527
C     1.585000000    -0.593000000    -0.706000000
H     2.450000000    -0.233000000    -1.258000000
C     0.657000000     0.372000000    -0.173000000
H     0.967000000     1.402000000    -0.332000000
C    -0.434000000    -0.045000000     0.421000000
H    -1.154000000     0.675000000     0.870000000
C    -0.675000000    -1.418000000     0.662000000
H    -1.615000000    -1.751000000     1.094000000
C     0.259000000    -2.381000000     0.222000000
H    -0.039000000    -3.426000000     0.262000000
C     1.443000000    -1.982000000    -0.475000000
C     2.319000000    -3.021000000    -1.131000000
O     2.050000000    -4.204000000    -0.852000000
O     3.135000000    -2.667000000    -1.899000000
