14
-86.43229
C     0.890000000    -1.823000000     0.394000000
H     1.932000000    -2.128000000     0.440000000
C     0.465000000    -0.493000000     0.452000000
H     1.083000000     0.366000000     0.703000000
C    -0.863000000    -0.161000000     0.155000000
H    -1.123000000     0.932000000     0.105000000
C    -1.811000000    -1.184000000    -0.017000000
H    -2.873000000    -0.957000000    -0.070000000
C    -1.337000000    -2.481000000    -0.098000000
H    -2.030000000    -3.317000000    -0.153000000
C     0.031000000    -2.843000000     0.005000000
C     0.486000000    -4.237000000    -0.088000000
O    -0.301000000    -4.998000000    -0.580000000
O     1.556000000    -4.584000000     0.361000000
