14
-80.51916
C    -0.614000000     1.019000000    -2.152000000
H    -1.413000000     1.124000000    -2.881000000
C    -0.947000000     0.523000000    -0.852000000
H    -1.966000000     0.176000000    -0.701000000
C    -0.019000000     0.306000000     0.116000000
H    -0.153000000    -0.257000000     0.978000000
C     1.330000000     0.592000000    -0.166000000
H     2.135000000     0.536000000     0.562000000
C     1.556000000     1.257000000    -1.394000000
H     2.532000000     1.712000000    -1.544000000
C     0.658000000     1.473000000    -2.390000000
C     0.966000000     2.052000000    -3.738000000
O     2.176000000     2.299000000    -3.964000000
O     0.190000000     1.880000000    -4.640000000
