14
-81.43973
C     1.826000000    -1.876000000    -0.193000000
H     2.897000000    -1.723000000    -0.294000000
C     1.008000000    -0.781000000    -0.086000000
H     1.529000000     0.170000000    -0.004000000
C    -0.380000000    -0.914000000    -0.146000000
H    -1.048000000    -0.025000000    -0.112000000
C    -0.968000000    -2.142000000    -0.096000000
H    -2.048000000    -2.260000000    -0.042000000
C    -0.137000000    -3.305000000     0.009000000
H    -0.544000000    -4.301000000     0.164000000
C     1.224000000    -3.166000000    -0.171000000
C     2.112000000    -4.363000000    -0.103000000
O     1.764000000    -5.296000000     0.606000000
O     2.803000000    -4.565000000    -1.066000000
