14
-89.98478
C     1.063000000    -1.839000000    -1.628000000
H     1.644000000    -2.414000000    -2.345000000
C     1.389000000    -0.539000000    -1.287000000
H     2.311000000    -0.123000000    -1.685000000
C     0.604000000     0.181000000    -0.388000000
H     0.856000000     1.133000000    -0.009000000
C    -0.467000000    -0.513000000     0.226000000
H    -0.989000000     0.070000000     0.980000000
C    -0.796000000    -1.901000000    -0.087000000
H    -1.661000000    -2.362000000     0.382000000
C    -0.056000000    -2.509000000    -1.086000000
C    -0.386000000    -3.950000000    -1.358000000
O    -1.469000000    -4.490000000    -0.908000000
O     0.478000000    -4.600000000    -1.934000000
