14
-83.61280
C    -0.404000000     0.710000000    -2.617000000
H    -1.082000000     0.573000000    -3.456000000
C    -0.659000000     0.082000000    -1.393000000
H    -1.573000000    -0.500000000    -1.314000000
C     0.318000000     0.111000000    -0.358000000
H     0.063000000    -0.407000000     0.563000000
C     1.462000000     0.849000000    -0.524000000
H     2.250000000     0.948000000     0.218000000
C     1.758000000     1.337000000    -1.800000000
H     2.772000000     1.688000000    -1.972000000
C     0.903000000     1.219000000    -2.934000000
C     1.214000000     1.673000000    -4.361000000
O     2.106000000     2.466000000    -4.558000000
O     0.565000000     1.334000000    -5.348000000
