14
-81.03941
C     1.691000000    -2.501000000    -0.717000000
H     2.678000000    -2.791000000    -1.071000000
C     1.595000000    -1.223000000    -0.053000000
H     2.516000000    -0.666000000     0.101000000
C     0.291000000    -0.780000000     0.402000000
H     0.016000000     0.186000000     0.782000000
C    -0.836000000    -1.601000000     0.101000000
H    -1.860000000    -1.319000000     0.331000000
C    -0.687000000    -2.850000000    -0.597000000
H    -1.546000000    -3.478000000    -0.820000000
C     0.574000000    -3.301000000    -0.881000000
C     0.802000000    -4.683000000    -1.371000000
O    -0.157000000    -5.200000000    -1.857000000
O     1.920000000    -5.231000000    -1.490000000
