14
-84.90987
C     1.747000000    -2.216000000     0.369000000
H     2.642000000    -2.677000000     0.779000000
C     1.441000000    -0.943000000     0.986000000
H     2.010000000    -0.540000000     1.821000000
C     0.368000000    -0.178000000     0.495000000
H     0.097000000     0.747000000     0.884000000
C    -0.457000000    -0.835000000    -0.471000000
H    -1.280000000    -0.212000000    -0.812000000
C    -0.235000000    -2.102000000    -1.040000000
H    -0.959000000    -2.520000000    -1.735000000
C     0.922000000    -2.813000000    -0.595000000
C     1.190000000    -4.282000000    -1.210000000
O     0.361000000    -4.820000000    -1.941000000
O     2.215000000    -4.935000000    -0.953000000
