14
-83.97479
C     0.005000000    -0.127000000    -2.334000000
H    -0.752000000    -0.241000000    -3.106000000
C    -0.358000000    -0.316000000    -0.963000000
H    -1.309000000    -0.764000000    -0.685000000
C     0.586000000    -0.104000000     0.011000000
H     0.306000000    -0.339000000     1.007000000
C     1.871000000     0.251000000    -0.424000000
H     2.610000000     0.406000000     0.359000000
C     2.181000000     0.531000000    -1.768000000
H     3.228000000     0.792000000    -1.898000000
C     1.194000000     0.422000000    -2.736000000
C     1.637000000     0.571000000    -4.155000000
O     2.725000000     1.032000000    -4.405000000
O     0.801000000     0.447000000    -5.046000000
