14
-87.96315
C     2.363000000    -0.786000000    -0.127000000
H     3.341000000    -1.073000000     0.250000000
C     1.429000000    -0.299000000     0.887000000
H     1.676000000    -0.163000000     1.937000000
C     0.218000000     0.153000000     0.459000000
H    -0.527000000     0.550000000     1.181000000
C    -0.072000000     0.179000000    -0.894000000
H    -1.031000000     0.567000000    -1.229000000
C     0.870000000    -0.205000000    -1.857000000
H     0.640000000    -0.061000000    -2.910000000
C     2.047000000    -0.772000000    -1.443000000
C     3.070000000    -1.439000000    -2.394000000
O     2.790000000    -1.574000000    -3.581000000
O     4.078000000    -1.976000000    -1.954000000
