14
-89.48562
C     2.447000000    -2.081000000     0.477000000
H     3.197000000    -2.683000000     0.984000000
C     1.426000000    -1.456000000     1.130000000
H     1.390000000    -1.463000000     2.217000000
C     0.525000000    -0.603000000     0.509000000
H    -0.325000000    -0.162000000     1.033000000
C     0.637000000    -0.468000000    -0.840000000
H    -0.131000000     0.145000000    -1.304000000
C     1.653000000    -1.144000000    -1.587000000
H     1.658000000    -1.225000000    -2.671000000
C     2.532000000    -1.981000000    -0.911000000
C     3.459000000    -2.920000000    -1.701000000
O     3.538000000    -2.886000000    -2.897000000
O     4.064000000    -3.768000000    -1.020000000
