14
-89.54488
C     2.183000000    -2.113000000    -0.182000000
H     3.059000000    -2.736000000    -0.022000000
C     1.920000000    -1.090000000     0.762000000
H     2.604000000    -0.883000000     1.582000000
C     0.785000000    -0.249000000     0.590000000
H     0.637000000     0.651000000     1.203000000
C    -0.061000000    -0.555000000    -0.416000000
H    -0.932000000     0.081000000    -0.549000000
C     0.137000000    -1.558000000    -1.309000000
H    -0.628000000    -1.707000000    -2.066000000
C     1.314000000    -2.336000000    -1.263000000
C     1.712000000    -3.341000000    -2.351000000
O     0.810000000    -3.769000000    -3.015000000
O     2.886000000    -3.665000000    -2.537000000
