14
-78.24474
C    -0.628000000     0.636000000    -2.105000000
H    -1.305000000     0.763000000    -2.946000000
C    -1.055000000     0.211000000    -0.833000000
H    -2.091000000    -0.115000000    -0.801000000
C    -0.232000000     0.139000000     0.262000000
H    -0.553000000    -0.273000000     1.226000000
C     1.119000000     0.486000000     0.053000000
H     1.812000000     0.438000000     0.889000000
C     1.614000000     0.831000000    -1.164000000
H     2.597000000     1.292000000    -1.207000000
C     0.778000000     0.962000000    -2.243000000
C     1.296000000     1.415000000    -3.542000000
O     2.457000000     1.652000000    -3.807000000
O     0.554000000     1.412000000    -4.485000000
