14
-80.05389
C     2.458000000    -2.140000000    -0.935000000
H     3.318000000    -2.790000000    -1.075000000
C     1.840000000    -1.913000000     0.271000000
H     2.213000000    -2.336000000     1.201000000
C     0.768000000    -1.050000000     0.284000000
H     0.293000000    -0.773000000     1.202000000
C     0.284000000    -0.515000000    -0.930000000
H    -0.548000000     0.182000000    -0.872000000
C     0.890000000    -0.728000000    -2.136000000
H     0.477000000    -0.212000000    -2.999000000
C     2.028000000    -1.527000000    -2.092000000
C     2.678000000    -1.916000000    -3.335000000
O     2.618000000    -1.276000000    -4.352000000
O     3.333000000    -2.947000000    -3.440000000
