14
-82.64157
C     1.646000000    -2.449000000    -1.048000000
H     2.332000000    -3.292000000    -1.081000000
C     1.215000000    -1.849000000     0.129000000
H     1.594000000    -2.138000000     1.106000000
C     0.309000000    -0.822000000     0.044000000
H     0.057000000    -0.239000000     0.903000000
C    -0.108000000    -0.424000000    -1.158000000
H    -0.716000000     0.476000000    -1.193000000
C     0.365000000    -0.940000000    -2.328000000
H    -0.216000000    -0.733000000    -3.222000000
C     1.149000000    -2.076000000    -2.291000000
C     1.537000000    -2.811000000    -3.582000000
O     1.177000000    -2.342000000    -4.694000000
O     2.328000000    -3.716000000    -3.517000000
