14
-88.64388
C     1.555000000    -2.410000000    -1.104000000
H     2.185000000    -3.286000000    -0.969000000
C     1.347000000    -1.565000000     0.037000000
H     1.845000000    -1.813000000     0.972000000
C     0.468000000    -0.455000000    -0.049000000
H     0.244000000     0.100000000     0.820000000
C    -0.234000000    -0.273000000    -1.223000000
H    -0.906000000     0.575000000    -1.330000000
C    -0.074000000    -1.144000000    -2.314000000
H    -0.490000000    -0.956000000    -3.300000000
C     0.790000000    -2.188000000    -2.267000000
C     1.070000000    -3.063000000    -3.444000000
O     0.522000000    -2.803000000    -4.509000000
O     1.772000000    -4.096000000    -3.405000000
