14
-84.20213
C     0.756000000    -2.481000000    -1.907000000
H     0.743000000    -3.519000000    -2.228000000
C     0.064000000    -2.078000000    -0.774000000
H    -0.527000000    -2.785000000    -0.197000000
C     0.064000000    -0.770000000    -0.375000000
H    -0.512000000    -0.449000000     0.485000000
C     0.701000000     0.199000000    -1.140000000
H     0.761000000     1.238000000    -0.826000000
C     1.387000000    -0.168000000    -2.295000000
H     1.998000000     0.557000000    -2.828000000
C     1.476000000    -1.575000000    -2.610000000
C     2.480000000    -1.972000000    -3.623000000
O     3.358000000    -1.232000000    -4.048000000
O     2.557000000    -3.125000000    -3.978000000
