14
-92.60698
C     0.604000000    -1.861000000    -1.641000000
H     0.588000000    -2.944000000    -1.729000000
C    -0.036000000    -1.170000000    -0.627000000
H    -0.586000000    -1.679000000     0.159000000
C     0.008000000     0.232000000    -0.631000000
H    -0.408000000     0.787000000     0.185000000
C     0.660000000     0.916000000    -1.643000000
H     0.770000000     1.995000000    -1.563000000
C     1.257000000     0.182000000    -2.698000000
H     1.623000000     0.753000000    -3.548000000
C     1.250000000    -1.227000000    -2.706000000
C     2.042000000    -2.019000000    -3.699000000
O     2.823000000    -1.387000000    -4.408000000
O     2.081000000    -3.238000000    -3.625000000
