14
-79.55117
C     0.490000000    -1.246000000    -1.716000000
H     0.132000000    -2.078000000    -2.317000000
C    -0.040000000    -0.900000000    -0.475000000
H    -0.902000000    -1.436000000    -0.084000000
C     0.223000000     0.269000000     0.159000000
H    -0.254000000     0.444000000     1.103000000
C     1.226000000     1.131000000    -0.313000000
H     1.392000000     2.051000000     0.242000000
C     1.865000000     0.699000000    -1.509000000
H     2.702000000     1.317000000    -1.825000000
C     1.460000000    -0.377000000    -2.231000000
C     2.374000000    -0.841000000    -3.377000000
O     3.444000000    -0.308000000    -3.624000000
O     2.099000000    -1.837000000    -3.953000000
