14
-80.96170
C     1.232000000    -0.627000000    -1.194000000
H     1.313000000    -1.676000000    -1.468000000
C     0.274000000    -0.148000000    -0.289000000
H    -0.362000000    -0.817000000     0.284000000
C     0.209000000     1.175000000     0.062000000
H    -0.473000000     1.459000000     0.826000000
C     0.933000000     2.123000000    -0.631000000
H     0.866000000     3.178000000    -0.378000000
C     1.821000000     1.710000000    -1.550000000
H     2.477000000     2.459000000    -1.987000000
C     2.101000000     0.352000000    -1.765000000
C     3.222000000    -0.011000000    -2.660000000
O     3.949000000     0.857000000    -3.136000000
O     3.469000000    -1.128000000    -2.992000000
