14
-90.35571
C    -0.236000000     0.783000000    -2.361000000
H    -0.854000000     0.638000000    -3.243000000
C    -0.730000000     0.299000000    -1.142000000
H    -1.683000000    -0.223000000    -1.139000000
C     0.029000000     0.385000000     0.031000000
H    -0.290000000    -0.027000000     0.961000000
C     1.315000000     0.892000000    -0.011000000
H     2.019000000     0.975000000     0.813000000
C     1.879000000     1.279000000    -1.283000000
H     2.948000000     1.475000000    -1.321000000
C     1.095000000     1.221000000    -2.425000000
C     1.654000000     1.824000000    -3.766000000
O     2.835000000     2.147000000    -3.745000000
O     0.933000000     2.153000000    -4.718000000
