14
-85.22256
C     1.926000000    -1.577000000    -1.270000000
H     2.299000000    -2.577000000    -1.471000000
C     0.975000000    -1.496000000    -0.261000000
H     0.723000000    -2.434000000     0.227000000
C     0.350000000    -0.292000000    -0.005000000
H    -0.399000000    -0.140000000     0.790000000
C     0.609000000     0.831000000    -0.840000000
H     0.009000000     1.735000000    -0.768000000
C     1.630000000     0.737000000    -1.774000000
H     1.871000000     1.578000000    -2.420000000
C     2.191000000    -0.501000000    -2.105000000
C     3.203000000    -0.552000000    -3.146000000
O     3.341000000     0.400000000    -3.896000000
O     3.766000000    -1.599000000    -3.423000000
