14
-85.87494
C     1.590000000    -1.655000000    -1.162000000
H     2.240000000    -2.514000000    -1.310000000
C     0.589000000    -1.744000000    -0.133000000
H     0.419000000    -2.707000000     0.342000000
C    -0.118000000    -0.583000000     0.234000000
H    -0.975000000    -0.644000000     0.924000000
C     0.144000000     0.615000000    -0.352000000
H    -0.482000000     1.442000000    -0.027000000
C     1.178000000     0.742000000    -1.262000000
H     1.422000000     1.710000000    -1.692000000
C     1.831000000    -0.371000000    -1.728000000
C     2.983000000    -0.307000000    -2.755000000
O     3.052000000     0.657000000    -3.504000000
O     3.620000000    -1.313000000    -3.066000000
