14
-80.69112
C     1.290000000    -1.489000000    -1.314000000
H     1.602000000    -2.504000000    -1.544000000
C     0.476000000    -1.350000000    -0.194000000
H     0.118000000    -2.226000000     0.340000000
C     0.060000000    -0.047000000     0.134000000
H    -0.643000000     0.049000000     0.969000000
C     0.497000000     1.049000000    -0.635000000
H     0.148000000     2.025000000    -0.305000000
C     1.369000000     0.840000000    -1.686000000
H     1.777000000     1.678000000    -2.246000000
C     1.835000000    -0.433000000    -1.995000000
C     2.915000000    -0.547000000    -3.026000000
O     3.490000000     0.430000000    -3.454000000
O     3.231000000    -1.601000000    -3.378000000
