14
-78.70953
C     1.048000000    -1.263000000    -1.427000000
H     1.156000000    -2.255000000    -1.858000000
C     0.115000000    -1.095000000    -0.424000000
H    -0.441000000    -1.975000000    -0.111000000
C    -0.066000000     0.139000000     0.098000000
H    -0.776000000     0.325000000     0.958000000
C     0.698000000     1.267000000    -0.359000000
H     0.514000000     2.275000000     0.003000000
C     1.636000000     1.083000000    -1.318000000
H     2.176000000     1.934000000    -1.724000000
C     1.937000000    -0.186000000    -1.799000000
C     3.033000000    -0.320000000    -2.854000000
O     3.937000000     0.470000000    -3.080000000
O     3.042000000    -1.284000000    -3.560000000
