14
-83.71929
C     1.989000000    -1.843000000    -0.652000000
H     2.421000000    -2.826000000    -0.821000000
C     0.665000000    -1.655000000    -0.280000000
H     0.111000000    -2.568000000    -0.077000000
C     0.025000000    -0.420000000    -0.230000000
H    -1.059000000    -0.301000000    -0.026000000
C     0.768000000     0.719000000    -0.544000000
H     0.352000000     1.718000000    -0.438000000
C     2.175000000     0.574000000    -0.676000000
H     2.778000000     1.476000000    -0.615000000
C     2.771000000    -0.690000000    -0.881000000
C     4.231000000    -0.825000000    -1.167000000
O     4.919000000     0.152000000    -1.328000000
O     4.823000000    -1.892000000    -1.287000000
