14
-84.44057
C     1.309000000    -1.452000000     0.240000000
H     1.947000000    -2.313000000     0.421000000
C    -0.078000000    -1.592000000     0.014000000
H    -0.422000000    -2.623000000    -0.001000000
C    -0.906000000    -0.501000000     0.095000000
H    -1.970000000    -0.685000000     0.004000000
C    -0.419000000     0.763000000     0.230000000
H    -1.156000000     1.556000000     0.330000000
C     1.014000000     0.933000000     0.354000000
H     1.366000000     1.955000000     0.465000000
C     1.866000000    -0.177000000     0.283000000
C     3.386000000    -0.020000000     0.221000000
O     3.758000000     1.099000000     0.115000000
O     4.132000000    -0.969000000     0.107000000
