14
-89.77615
C     2.374000000    -2.289000000    -0.644000000
H     2.903000000    -3.231000000    -0.767000000
C     1.329000000    -2.202000000     0.274000000
H     1.067000000    -3.085000000     0.853000000
C     0.647000000    -0.977000000     0.485000000
H    -0.214000000    -0.850000000     1.143000000
C     1.094000000     0.170000000    -0.159000000
H     0.762000000     1.187000000     0.035000000
C     2.045000000     0.042000000    -1.133000000
H     2.316000000     0.841000000    -1.819000000
C     2.762000000    -1.143000000    -1.335000000
C     3.811000000    -1.304000000    -2.432000000
O     4.491000000    -0.328000000    -2.621000000
O     4.082000000    -2.453000000    -2.804000000
