14
-78.44473
C     2.105000000    -1.565000000    -0.416000000
H     2.513000000    -2.564000000    -0.549000000
C     0.811000000    -1.392000000     0.166000000
H     0.368000000    -2.317000000     0.524000000
C     0.191000000    -0.142000000     0.114000000
H    -0.868000000    -0.050000000     0.523000000
C     0.885000000     0.939000000    -0.303000000
H     0.502000000     1.952000000    -0.211000000
C     2.238000000     0.815000000    -0.772000000
H     2.838000000     1.655000000    -1.111000000
C     2.841000000    -0.466000000    -0.828000000
C     4.230000000    -0.686000000    -1.214000000
O     4.807000000     0.079000000    -1.936000000
O     4.862000000    -1.484000000    -0.596000000
