14
-86.22374
C     1.812000000    -1.372000000    -0.428000000
H     2.254000000    -2.358000000    -0.541000000
C     0.494000000    -1.226000000    -0.088000000
H    -0.159000000    -2.092000000    -0.009000000
C    -0.043000000     0.042000000     0.037000000
H    -1.110000000     0.121000000     0.203000000
C     0.748000000     1.220000000    -0.071000000
H     0.355000000     2.232000000    -0.028000000
C     2.088000000     1.023000000    -0.427000000
H     2.776000000     1.848000000    -0.595000000
C     2.615000000    -0.289000000    -0.643000000
C     4.022000000    -0.403000000    -0.977000000
O     4.755000000     0.590000000    -0.830000000
O     4.487000000    -1.523000000    -1.008000000
