14
-85.74428
C     1.722000000    -0.933000000    -0.062000000
H     1.959000000    -1.993000000    -0.018000000
C     0.422000000    -0.442000000    -0.004000000
H    -0.435000000    -1.099000000     0.125000000
C     0.145000000     0.879000000    -0.281000000
H    -0.838000000     1.333000000    -0.311000000
C     1.232000000     1.755000000    -0.534000000
H     1.071000000     2.817000000    -0.706000000
C     2.565000000     1.261000000    -0.582000000
H     3.419000000     1.859000000    -0.889000000
C     2.798000000    -0.111000000    -0.355000000
C     4.174000000    -0.570000000    -0.415000000
O     5.003000000     0.128000000    -0.887000000
O     4.411000000    -1.656000000     0.078000000
