14
-84.06477
C     2.618000000    -2.021000000     0.561000000
H     3.185000000    -2.728000000     1.162000000
C     1.257000000    -1.922000000     0.712000000
H     0.644000000    -2.509000000     1.392000000
C     0.640000000    -0.953000000    -0.065000000
H    -0.383000000    -0.892000000    -0.079000000
C     1.362000000    -0.238000000    -1.014000000
H     0.739000000     0.263000000    -1.751000000
C     2.739000000    -0.437000000    -1.203000000
H     3.289000000     0.186000000    -1.903000000
C     3.386000000    -1.273000000    -0.334000000
C     4.868000000    -1.415000000    -0.402000000
O     5.533000000    -1.099000000    -1.361000000
O     5.437000000    -1.865000000     0.576000000
