14
-84.10985
C    -1.680000000    -0.863000000     0.167000000
H    -1.982000000    -1.764000000     0.695000000
C    -0.366000000    -0.437000000     0.238000000
H     0.354000000    -1.100000000     0.712000000
C     0.048000000     0.721000000    -0.409000000
H     1.110000000     0.932000000    -0.503000000
C    -0.891000000     1.533000000    -1.078000000
H    -0.594000000     2.495000000    -1.489000000
C    -2.237000000     1.104000000    -1.134000000
H    -3.031000000     1.702000000    -1.574000000
C    -2.639000000    -0.108000000    -0.513000000
C    -4.001000000    -0.690000000    -0.666000000
O    -4.800000000    -0.186000000    -1.402000000
O    -4.390000000    -1.798000000    -0.214000000
