14
-71.44748
C     1.839000000    -2.349000000    -0.191000000
H     1.791000000    -3.427000000    -0.318000000
C     0.836000000    -1.593000000     0.456000000
H     0.050000000    -2.055000000     1.047000000
C     0.718000000    -0.191000000     0.374000000
H    -0.083000000     0.381000000     0.873000000
C     1.709000000     0.526000000    -0.332000000
H     1.766000000     1.586000000    -0.094000000
C     2.773000000    -0.211000000    -0.925000000
H     3.552000000     0.399000000    -1.375000000
C     2.863000000    -1.618000000    -0.934000000
C     3.971000000    -2.285000000    -1.685000000
O     4.853000000    -1.607000000    -2.007000000
O     4.126000000    -3.483000000    -1.651000000
