14
-78.93059
C     2.242000000    -1.415000000    -0.095000000
H     2.402000000    -2.466000000     0.129000000
C     1.073000000    -0.809000000     0.428000000
H     0.442000000    -1.425000000     1.063000000
C     0.831000000     0.519000000     0.230000000
H    -0.078000000     1.016000000     0.637000000
C     1.656000000     1.323000000    -0.573000000
H     1.404000000     2.356000000    -0.798000000
C     2.885000000     0.767000000    -1.012000000
H     3.488000000     1.443000000    -1.614000000
C     3.213000000    -0.575000000    -0.722000000
C     4.583000000    -1.140000000    -0.970000000
O     5.511000000    -0.393000000    -1.280000000
O     4.957000000    -2.153000000    -0.386000000
