14
-80.58350
C     1.197000000    -0.575000000    -1.674000000
H     0.984000000    -1.396000000    -2.354000000
C     0.201000000    -0.345000000    -0.698000000
H    -0.691000000    -0.967000000    -0.688000000
C     0.454000000     0.655000000     0.235000000
H    -0.076000000     0.794000000     1.138000000
C     1.594000000     1.420000000     0.152000000
H     1.888000000     2.039000000     0.996000000
C     2.520000000     1.301000000    -0.897000000
H     3.441000000     1.873000000    -0.977000000
C     2.304000000     0.284000000    -1.828000000
C     3.384000000     0.055000000    -2.830000000
O     4.237000000     0.923000000    -3.022000000
O     3.683000000    -1.063000000    -3.134000000
