14
-73.87149
C     2.400000000    -1.577000000    -1.801000000
H     2.869000000    -2.354000000    -2.401000000
C     1.043000000    -1.530000000    -1.577000000
H     0.414000000    -2.228000000    -2.124000000
C     0.529000000    -0.614000000    -0.632000000
H    -0.511000000    -0.644000000    -0.442000000
C     1.328000000     0.387000000    -0.074000000
H     0.787000000     1.019000000     0.626000000
C     2.684000000     0.318000000    -0.282000000
H     3.282000000     0.969000000     0.351000000
C     3.217000000    -0.651000000    -1.208000000
C     4.728000000    -0.755000000    -1.330000000
O     5.370000000    -0.107000000    -0.550000000
O     5.298000000    -1.796000000    -1.696000000
