14
-85.45066
C     1.343000000    -0.965000000    -1.915000000
H     1.534000000    -1.620000000    -2.761000000
C     0.116000000    -0.807000000    -1.371000000
H    -0.743000000    -1.256000000    -1.864000000
C    -0.069000000    -0.088000000    -0.180000000
H    -1.017000000     0.036000000     0.262000000
C     1.061000000     0.506000000     0.419000000
H     0.844000000     1.027000000     1.347000000
C     2.341000000     0.422000000    -0.149000000
H     3.192000000     0.907000000     0.323000000
C     2.468000000    -0.290000000    -1.350000000
C     3.895000000    -0.499000000    -1.810000000
O     4.772000000    -0.729000000    -0.975000000
O     4.197000000    -0.731000000    -2.963000000
