14
-92.72184
C     0.472000000     0.282000000    -2.406000000
H     0.104000000     0.126000000    -3.417000000
C    -0.330000000     0.004000000    -1.291000000
H    -1.343000000    -0.355000000    -1.451000000
C     0.161000000     0.101000000     0.004000000
H    -0.496000000    -0.063000000     0.795000000
C     1.482000000     0.500000000     0.233000000
H     1.956000000     0.663000000     1.197000000
C     2.273000000     0.642000000    -0.883000000
H     3.330000000     0.828000000    -0.707000000
C     1.836000000     0.552000000    -2.205000000
C     2.757000000     0.936000000    -3.371000000
O     3.923000000     1.138000000    -3.066000000
O     2.283000000     1.179000000    -4.473000000
