14
-83.87565
C     1.561000000    -0.163000000    -2.911000000
H     1.625000000    -0.804000000    -3.786000000
C     0.475000000    -0.294000000    -2.013000000
H    -0.273000000    -1.030000000    -2.297000000
C     0.357000000     0.464000000    -0.890000000
H    -0.573000000     0.483000000    -0.256000000
C     1.387000000     1.313000000    -0.649000000
H     1.425000000     1.849000000     0.295000000
C     2.524000000     1.486000000    -1.474000000
H     3.311000000     2.184000000    -1.197000000
C     2.593000000     0.708000000    -2.613000000
C     3.820000000     0.998000000    -3.481000000
O     4.937000000     1.364000000    -3.048000000
O     3.779000000     0.745000000    -4.663000000
