14
-92.06253
C     1.403000000    -0.202000000    -2.148000000
H     1.680000000    -0.373000000    -3.185000000
C     0.145000000    -0.531000000    -1.670000000
H    -0.529000000    -1.101000000    -2.305000000
C    -0.214000000    -0.136000000    -0.344000000
H    -1.203000000    -0.326000000     0.047000000
C     0.675000000     0.521000000     0.455000000
H     0.467000000     0.859000000     1.467000000
C     2.000000000     0.782000000    -0.020000000
H     2.724000000     1.358000000     0.550000000
C     2.300000000     0.438000000    -1.326000000
C     3.678000000     0.666000000    -2.018000000
O     4.526000000     1.399000000    -1.527000000
O     3.939000000    -0.008000000    -3.017000000
