14
-87.02769
C     1.878000000    -0.591000000    -1.917000000
H     2.151000000    -1.099000000    -2.838000000
C     0.577000000    -0.398000000    -1.503000000
H    -0.216000000    -0.897000000    -2.054000000
C     0.384000000     0.284000000    -0.294000000
H    -0.610000000     0.391000000     0.035000000
C     1.371000000     0.913000000     0.383000000
H     1.181000000     1.424000000     1.324000000
C     2.680000000     0.773000000    -0.100000000
H     3.461000000     1.351000000     0.389000000
C     2.952000000     0.000000000    -1.230000000
C     4.389000000     0.000000000    -1.750000000
O     5.244000000     0.550000000    -1.107000000
O     4.761000000    -0.616000000    -2.758000000
