14
-82.84296
C     2.168000000     0.088000000    -2.290000000
H     2.602000000    -0.214000000    -3.240000000
C     0.830000000    -0.128000000    -2.013000000
H     0.225000000    -0.547000000    -2.814000000
C     0.217000000     0.128000000    -0.860000000
H    -0.814000000    -0.198000000    -0.612000000
C     0.999000000     0.663000000     0.186000000
H     0.543000000     0.790000000     1.164000000
C     2.345000000     0.871000000    -0.020000000
H     2.977000000     1.215000000     0.794000000
C     2.919000000     0.687000000    -1.262000000
C     4.435000000     0.925000000    -1.566000000
O     5.188000000     1.151000000    -0.657000000
O     4.849000000     0.700000000    -2.653000000
