14
-92.97601
C     1.488000000     0.081000000    -2.667000000
H     1.532000000    -0.559000000    -3.546000000
C     0.444000000    -0.165000000    -1.747000000
H    -0.342000000    -0.852000000    -2.051000000
C     0.320000000     0.583000000    -0.608000000
H    -0.562000000     0.413000000     0.043000000
C     1.329000000     1.479000000    -0.281000000
H     1.296000000     1.996000000     0.675000000
C     2.393000000     1.655000000    -1.119000000
H     3.177000000     2.377000000    -0.907000000
C     2.511000000     0.985000000    -2.342000000
C     3.672000000     1.080000000    -3.291000000
O     4.583000000     1.906000000    -3.135000000
O     3.730000000     0.254000000    -4.201000000
