14
-81.97797
C     2.438000000     0.449000000    -1.542000000
H     3.161000000     0.618000000    -2.337000000
C     1.141000000     0.105000000    -1.745000000
H     0.782000000     0.143000000    -2.771000000
C     0.241000000     0.077000000    -0.720000000
H    -0.824000000    -0.005000000    -0.814000000
C     0.721000000     0.233000000     0.536000000
H     0.025000000     0.247000000     1.371000000
C     2.086000000     0.298000000     0.830000000
H     2.408000000     0.230000000     1.866000000
C     2.936000000     0.479000000    -0.205000000
C     4.396000000     0.709000000     0.008000000
O     4.886000000     0.447000000     1.090000000
O     5.150000000     0.911000000    -0.925000000
