14
-82.88317
C     1.195000000     0.131000000    -1.623000000
H     1.128000000     0.180000000    -2.706000000
C    -0.056000000     0.038000000    -1.030000000
H    -0.971000000    -0.082000000    -1.605000000
C    -0.212000000     0.054000000     0.332000000
H    -1.148000000    -0.148000000     0.898000000
C     0.901000000     0.064000000     1.153000000
H     0.844000000     0.069000000     2.238000000
C     2.169000000    -0.017000000     0.595000000
H     3.010000000    -0.071000000     1.282000000
C     2.323000000    -0.017000000    -0.814000000
C     3.708000000    -0.204000000    -1.430000000
O     4.641000000    -0.434000000    -0.696000000
O     3.918000000    -0.400000000    -2.647000000
