14
-79.47963
C     1.823000000     0.030000000    -1.286000000
H     1.925000000    -0.396000000    -2.281000000
C     0.604000000     0.087000000    -0.612000000
H    -0.320000000    -0.285000000    -1.047000000
C     0.471000000     0.588000000     0.670000000
H    -0.492000000     0.714000000     1.115000000
C     1.645000000     0.958000000     1.337000000
H     1.441000000     1.351000000     2.330000000
C     2.958000000     0.901000000     0.725000000
H     3.816000000     1.266000000     1.284000000
C     3.052000000     0.444000000    -0.626000000
C     4.405000000     0.584000000    -1.321000000
O     5.289000000     1.086000000    -0.735000000
O     4.619000000    -0.016000000    -2.345000000
