14
-89.72359
C     2.094000000    -0.842000000    -1.926000000
H     2.477000000    -1.354000000    -2.804000000
C     0.754000000    -0.987000000    -1.694000000
H     0.144000000    -1.540000000    -2.403000000
C     0.181000000    -0.447000000    -0.543000000
H    -0.861000000    -0.425000000    -0.415000000
C     0.959000000     0.310000000     0.400000000
H     0.447000000     0.732000000     1.261000000
C     2.323000000     0.436000000     0.086000000
H     2.888000000     1.001000000     0.823000000
C     2.871000000    -0.067000000    -1.074000000
C     4.403000000     0.087000000    -1.406000000
O     5.148000000     0.563000000    -0.582000000
O     4.773000000    -0.277000000    -2.496000000
