14
-82.06777
C     2.318000000    -0.250000000    -2.016000000
H     2.693000000    -0.336000000    -3.032000000
C     0.927000000    -0.387000000    -1.871000000
H     0.211000000    -0.560000000    -2.671000000
C     0.327000000    -0.328000000    -0.636000000
H    -0.737000000    -0.417000000    -0.505000000
C     1.070000000    -0.153000000     0.541000000
H     0.508000000    -0.243000000     1.467000000
C     2.431000000     0.038000000     0.413000000
H     2.910000000     0.159000000     1.381000000
C     3.097000000     0.000000000    -0.875000000
C     4.605000000    -0.005000000    -0.881000000
O     5.143000000    -0.146000000     0.165000000
O     5.174000000    -0.077000000    -1.930000000
