14
-86.77575
C     1.631000000    -0.489000000    -3.818000000
H     1.745000000    -0.876000000    -4.827000000
C     0.423000000    -0.516000000    -3.162000000
H    -0.483000000    -0.938000000    -3.591000000
C     0.298000000    -0.007000000    -1.889000000
H    -0.591000000    -0.150000000    -1.323000000
C     1.399000000     0.514000000    -1.240000000
H     1.282000000     0.846000000    -0.211000000
C     2.592000000     0.668000000    -1.960000000
H     3.444000000     1.125000000    -1.464000000
C     2.752000000     0.109000000    -3.226000000
C     4.050000000     0.253000000    -3.953000000
O     4.936000000     0.932000000    -3.545000000
O     4.128000000    -0.144000000    -5.128000000
