14
-89.15655
C     1.233000000    -0.264000000    -2.979000000
H     1.364000000    -0.416000000    -4.047000000
C    -0.057000000    -0.398000000    -2.431000000
H    -0.919000000    -0.715000000    -3.012000000
C    -0.216000000    -0.128000000    -1.081000000
H    -1.194000000    -0.164000000    -0.586000000
C     0.866000000     0.265000000    -0.285000000
H     0.730000000     0.569000000     0.749000000
C     2.087000000     0.485000000    -0.920000000
H     3.001000000     0.750000000    -0.394000000
C     2.293000000     0.274000000    -2.262000000
C     3.630000000     0.552000000    -2.930000000
O     4.587000000     0.831000000    -2.267000000
O     3.780000000     0.325000000    -4.136000000
