14
-87.00950
C     0.035000000    -0.032000000    -1.913000000
H    -0.586000000    -0.159000000    -2.796000000
C    -0.521000000    -0.126000000    -0.682000000
H    -1.587000000    -0.230000000    -0.498000000
C     0.258000000     0.117000000     0.427000000
H    -0.011000000     0.041000000     1.534000000
C     1.642000000     0.243000000     0.321000000
H     2.218000000     0.401000000     1.229000000
C     2.240000000     0.375000000    -0.928000000
H     3.320000000     0.471000000    -1.007000000
C     1.462000000     0.145000000    -2.082000000
C     2.053000000     0.376000000    -3.484000000
O     3.197000000     0.862000000    -3.531000000
O     1.400000000     0.236000000    -4.516000000
