14
-80.42317
C     1.053000000    -1.056000000    -2.033000000
H     0.912000000    -1.269000000    -3.089000000
C     0.190000000    -0.287000000    -1.295000000
H    -0.753000000     0.060000000    -1.710000000
C     0.530000000     0.011000000     0.025000000
H    -0.226000000     0.473000000     0.733000000
C     1.686000000    -0.550000000     0.544000000
H     1.830000000    -0.551000000     1.622000000
C     2.579000000    -1.162000000    -0.219000000
H     3.407000000    -1.653000000     0.286000000
C     2.278000000    -1.407000000    -1.562000000
C     3.263000000    -2.145000000    -2.406000000
O     4.249000000    -2.714000000    -1.924000000
O     3.045000000    -2.414000000    -3.615000000
