14
-87.09726
C     2.025000000     0.318000000    -2.370000000
H     2.196000000     0.650000000    -3.391000000
C     0.864000000     0.585000000    -1.634000000
H     0.032000000     1.078000000    -2.131000000
C     0.764000000     0.135000000    -0.297000000
H    -0.103000000     0.416000000     0.329000000
C     1.856000000    -0.543000000     0.230000000
H     1.827000000    -0.780000000     1.291000000
C     2.985000000    -0.854000000    -0.520000000
H     3.754000000    -1.509000000    -0.120000000
C     3.065000000    -0.487000000    -1.832000000
C     4.239000000    -0.978000000    -2.717000000
O     4.991000000    -1.728000000    -2.193000000
O     4.257000000    -0.813000000    -3.917000000
