14
-83.85585
C     1.255000000    -1.263000000    -1.687000000
H     1.715000000    -1.590000000    -2.616000000
C     0.182000000    -0.403000000    -1.798000000
H    -0.151000000    -0.136000000    -2.798000000
C    -0.322000000     0.275000000    -0.720000000
H    -1.202000000     0.868000000    -0.941000000
C     0.283000000     0.032000000     0.508000000
H     0.026000000     0.495000000     1.458000000
C     1.345000000    -0.790000000     0.682000000
H     1.896000000    -0.824000000     1.618000000
C     1.807000000    -1.508000000    -0.429000000
C     3.024000000    -2.370000000    -0.339000000
O     3.654000000    -2.405000000     0.711000000
O     3.271000000    -3.188000000    -1.210000000
