14
-89.49990
C     0.826000000    -2.027000000    -1.394000000
H     0.835000000    -2.535000000    -2.355000000
C     0.058000000    -0.874000000    -1.359000000
H    -0.473000000    -0.555000000    -2.252000000
C    -0.051000000    -0.096000000    -0.225000000
H    -0.640000000     0.818000000    -0.229000000
C     0.659000000    -0.513000000     0.923000000
H     0.624000000     0.081000000     1.833000000
C     1.457000000    -1.628000000     0.896000000
H     1.838000000    -1.951000000     1.861000000
C     1.516000000    -2.438000000    -0.232000000
C     2.442000000    -3.615000000    -0.313000000
O     3.214000000    -3.781000000     0.607000000
O     2.388000000    -4.370000000    -1.249000000
