14
-82.59767
C     0.207000000    -1.269000000    -1.124000000
H     0.024000000    -1.783000000    -2.064000000
C    -0.549000000    -0.130000000    -0.743000000
H    -1.366000000     0.186000000    -1.386000000
C    -0.308000000     0.549000000     0.447000000
H    -0.816000000     1.439000000     0.804000000
C     0.744000000     0.167000000     1.205000000
H     1.127000000     0.770000000     2.024000000
C     1.549000000    -0.900000000     0.836000000
H     2.437000000    -1.099000000     1.432000000
C     1.246000000    -1.650000000    -0.299000000
C     2.178000000    -2.789000000    -0.839000000
O     3.031000000    -3.339000000    -0.193000000
O     2.008000000    -3.292000000    -1.969000000
