14
-84.49478
C     1.990000000    -2.430000000    -1.614000000
H     2.305000000    -3.120000000    -2.393000000
C     0.909000000    -1.611000000    -1.857000000
H     0.434000000    -1.643000000    -2.834000000
C     0.476000000    -0.735000000    -0.908000000
H    -0.323000000    -0.095000000    -1.199000000
C     1.132000000    -0.621000000     0.278000000
H     1.028000000     0.205000000     0.977000000
C     2.153000000    -1.477000000     0.625000000
H     2.576000000    -1.245000000     1.599000000
C     2.583000000    -2.375000000    -0.348000000
C     3.933000000    -3.026000000    -0.116000000
O     4.409000000    -3.063000000     1.025000000
O     4.416000000    -3.585000000    -1.061000000
