14
-80.34228
C     1.091000000    -1.746000000    -1.419000000
H     1.007000000    -2.241000000    -2.384000000
C     0.229000000    -0.649000000    -1.279000000
H    -0.425000000    -0.421000000    -2.117000000
C     0.360000000     0.116000000    -0.137000000
H    -0.220000000     1.025000000     0.010000000
C     1.185000000    -0.376000000     0.900000000
H     1.165000000     0.143000000     1.855000000
C     2.023000000    -1.481000000     0.749000000
H     2.522000000    -1.896000000     1.622000000
C     2.021000000    -2.173000000    -0.449000000
C     2.992000000    -3.284000000    -0.751000000
O     3.525000000    -3.790000000     0.196000000
O     3.217000000    -3.783000000    -1.808000000
