14
-88.89377
C     1.555000000    -2.332000000     0.086000000
H     1.693000000    -3.279000000    -0.430000000
C     0.565000000    -1.415000000    -0.358000000
H     0.045000000    -1.545000000    -1.304000000
C     0.320000000    -0.195000000     0.341000000
H    -0.495000000     0.454000000    -0.002000000
C     1.151000000     0.120000000     1.408000000
H     1.042000000     1.118000000     1.826000000
C     2.017000000    -0.810000000     1.923000000
H     2.586000000    -0.649000000     2.835000000
C     2.191000000    -2.106000000     1.314000000
C     3.241000000    -3.111000000     1.873000000
O     4.089000000    -2.700000000     2.670000000
O     3.383000000    -4.119000000     1.218000000
