14
-86.62277
C     0.552000000    -1.388000000    -0.060000000
H     0.435000000    -2.256000000    -0.704000000
C    -0.321000000    -0.359000000    -0.198000000
H    -1.225000000    -0.616000000    -0.743000000
C    -0.183000000     0.857000000     0.537000000
H    -0.933000000     1.641000000     0.449000000
C     0.825000000     0.906000000     1.456000000
H     0.910000000     1.750000000     2.136000000
C     1.780000000    -0.128000000     1.568000000
H     2.529000000    -0.120000000     2.356000000
C     1.659000000    -1.292000000     0.819000000
C     2.748000000    -2.415000000     0.942000000
O     3.732000000    -2.315000000     1.625000000
O     2.628000000    -3.398000000     0.234000000
