14
-83.54584
C     1.422000000    -1.885000000    -1.089000000
H     1.605000000    -2.661000000    -1.828000000
C     0.403000000    -0.970000000    -1.382000000
H    -0.011000000    -1.059000000    -2.383000000
C    -0.029000000    -0.004000000    -0.469000000
H    -0.856000000     0.631000000    -0.677000000
C     0.616000000     0.071000000     0.746000000
H     0.351000000     0.846000000     1.460000000
C     1.613000000    -0.817000000     1.068000000
H     2.123000000    -0.766000000     2.027000000
C     1.981000000    -1.859000000     0.154000000
C     3.123000000    -2.767000000     0.522000000
O     3.696000000    -2.670000000     1.579000000
O     3.639000000    -3.536000000    -0.258000000
