14
-88.06465
C     1.309000000    -2.003000000    -0.807000000
H     1.483000000    -2.650000000    -1.662000000
C     0.482000000    -0.883000000    -0.939000000
H     0.095000000    -0.774000000    -1.949000000
C     0.234000000    -0.088000000     0.186000000
H    -0.144000000     0.985000000     0.083000000
C     0.808000000    -0.437000000     1.434000000
H     0.765000000     0.262000000     2.265000000
C     1.661000000    -1.553000000     1.544000000
H     2.172000000    -1.800000000     2.471000000
C     1.953000000    -2.328000000     0.415000000
C     2.979000000    -3.462000000     0.415000000
O     3.639000000    -3.721000000     1.390000000
O     3.282000000    -3.975000000    -0.692000000
