14
-86.65506
C     1.436000000    -0.891000000    -0.531000000
H     1.795000000    -1.399000000    -1.422000000
C     0.135000000    -0.378000000    -0.433000000
H    -0.606000000    -0.525000000    -1.214000000
C    -0.260000000     0.422000000     0.652000000
H    -1.124000000     1.097000000     0.655000000
C     0.585000000     0.564000000     1.720000000
H     0.373000000     1.082000000     2.652000000
C     1.918000000     0.113000000     1.625000000
H     2.628000000     0.257000000     2.436000000
C     2.302000000    -0.720000000     0.552000000
C     3.713000000    -1.259000000     0.413000000
O     4.638000000    -0.698000000     0.949000000
O     3.989000000    -2.240000000    -0.321000000
