14
-83.97846
C     0.513000000    -1.018000000    -1.068000000
H     0.510000000    -1.895000000    -1.710000000
C    -0.628000000    -0.353000000    -0.722000000
H    -1.556000000    -0.549000000    -1.254000000
C    -0.616000000     0.729000000     0.115000000
H    -1.527000000     1.220000000     0.348000000
C     0.551000000     1.093000000     0.740000000
H     0.573000000     1.928000000     1.435000000
C     1.708000000     0.316000000     0.586000000
H     2.579000000     0.522000000     1.203000000
C     1.721000000    -0.692000000    -0.365000000
C     3.027000000    -1.415000000    -0.533000000
O     3.951000000    -1.174000000     0.203000000
O     3.093000000    -2.437000000    -1.193000000
