14
-87.70813
C     1.724000000    -1.063000000    -1.457000000
H     1.805000000    -1.672000000    -2.353000000
C     0.459000000    -0.760000000    -0.937000000
H    -0.387000000    -0.995000000    -1.578000000
C     0.391000000    -0.037000000     0.272000000
H    -0.548000000     0.275000000     0.750000000
C     1.604000000     0.412000000     0.828000000
H     1.576000000     1.097000000     1.671000000
C     2.832000000     0.097000000     0.263000000
H     3.749000000     0.488000000     0.696000000
C     2.942000000    -0.715000000    -0.868000000
C     4.174000000    -1.004000000    -1.607000000
O     5.199000000    -0.554000000    -1.138000000
O     4.230000000    -1.719000000    -2.597000000
