14
-83.26419
C     2.060000000    -1.200000000    -0.912000000
H     2.692000000    -1.955000000    -1.373000000
C     0.717000000    -1.479000000    -0.936000000
H     0.349000000    -2.371000000    -1.437000000
C    -0.136000000    -0.495000000    -0.376000000
H    -1.299000000    -0.647000000    -0.322000000
C     0.391000000     0.667000000     0.225000000
H    -0.284000000     1.402000000     0.656000000
C     1.787000000     0.949000000     0.125000000
H     2.189000000     1.840000000     0.600000000
C     2.646000000    -0.001000000    -0.393000000
C     4.173000000     0.203000000    -0.425000000
O     4.514000000     1.194000000     0.192000000
O     4.966000000    -0.737000000    -0.568000000
