14
-88.09387
C     1.398000000    -0.729000000    -1.436000000
H     1.297000000    -1.271000000    -2.372000000
C     0.234000000    -0.231000000    -0.770000000
H    -0.763000000    -0.405000000    -1.167000000
C     0.377000000     0.301000000     0.511000000
H    -0.573000000     0.619000000     0.972000000
C     1.683000000     0.469000000     1.093000000
H     1.834000000     0.852000000     2.099000000
C     2.778000000     0.046000000     0.342000000
H     3.751000000     0.103000000     0.822000000
C     2.615000000    -0.486000000    -0.923000000
C     3.808000000    -0.816000000    -1.791000000
O     4.907000000    -0.580000000    -1.386000000
O     3.637000000    -1.449000000    -2.851000000
