14
-80.39608
C     1.568000000    -1.147000000    -0.872000000
H     2.229000000    -1.819000000    -1.412000000
C     0.154000000    -1.116000000    -1.184000000
H    -0.339000000    -1.793000000    -1.876000000
C    -0.660000000    -0.185000000    -0.491000000
H    -1.645000000     0.015000000    -0.922000000
C    -0.098000000     0.695000000     0.333000000
H    -0.755000000     1.407000000     0.826000000
C     1.299000000     0.760000000     0.526000000
H     1.729000000     1.521000000     1.171000000
C     2.158000000    -0.174000000    -0.093000000
C     3.650000000    -0.046000000     0.089000000
O     4.081000000     0.658000000     1.027000000
O     4.367000000    -0.907000000    -0.360000000
