14
-88.52831
C    -0.746000000     0.764000000    -2.479000000
H    -1.543000000     0.456000000    -3.151000000
C    -0.752000000     0.466000000    -1.129000000
H    -1.608000000    -0.027000000    -0.676000000
C     0.384000000     0.652000000    -0.279000000
H     0.322000000     0.400000000     0.813000000
C     1.497000000     1.219000000    -0.883000000
H     2.405000000     1.321000000    -0.295000000
C     1.543000000     1.668000000    -2.197000000
H     2.485000000     1.970000000    -2.648000000
C     0.413000000     1.326000000    -3.047000000
C     0.514000000     1.596000000    -4.559000000
O     1.412000000     2.251000000    -5.081000000
O    -0.497000000     1.281000000    -5.180000000
