14
-88.77366
C     1.613000000     0.042000000    -1.614000000
H     2.116000000    -0.043000000    -2.574000000
C     0.284000000    -0.357000000    -1.513000000
H    -0.251000000    -0.723000000    -2.385000000
C    -0.402000000    -0.099000000    -0.292000000
H    -1.377000000    -0.454000000    -0.075000000
C     0.240000000     0.610000000     0.723000000
H    -0.438000000     0.835000000     1.541000000
C     1.550000000     0.991000000     0.628000000
H     2.042000000     1.529000000     1.434000000
C     2.294000000     0.683000000    -0.543000000
C     3.690000000     1.139000000    -0.720000000
O     4.370000000     1.262000000     0.320000000
O     4.183000000     1.104000000    -1.817000000
