14
-80.62735
C     1.650000000    -0.366000000    -1.507000000
H     2.109000000    -0.386000000    -2.492000000
C     0.329000000    -0.740000000    -1.302000000
H    -0.272000000    -1.189000000    -2.089000000
C    -0.333000000    -0.431000000    -0.129000000
H    -1.439000000    -0.684000000    -0.037000000
C     0.284000000     0.298000000     0.845000000
H    -0.293000000     0.582000000     1.721000000
C     1.657000000     0.683000000     0.660000000
H     2.174000000     1.348000000     1.347000000
C     2.322000000     0.311000000    -0.501000000
C     3.704000000     0.694000000    -0.739000000
O     4.355000000     0.670000000     0.248000000
O     4.159000000     0.951000000    -1.825000000
