14
-84.91701
C     1.263000000    -1.109000000    -1.262000000
H     1.415000000    -1.684000000    -2.173000000
C    -0.049000000    -0.806000000    -0.956000000
H    -0.769000000    -1.301000000    -1.603000000
C    -0.379000000     0.002000000     0.122000000
H    -1.385000000     0.279000000     0.244000000
C     0.614000000     0.539000000     0.885000000
H     0.409000000     1.240000000     1.690000000
C     1.979000000     0.144000000     0.724000000
H     2.668000000     0.572000000     1.448000000
C     2.294000000    -0.584000000    -0.416000000
C     3.728000000    -0.925000000    -0.690000000
O     4.614000000    -0.631000000     0.072000000
O     4.045000000    -1.679000000    -1.639000000
