14
-83.61462
C     0.715000000    -0.498000000    -1.098000000
H     0.634000000    -0.998000000    -2.060000000
C    -0.363000000     0.061000000    -0.502000000
H    -1.371000000    -0.045000000    -0.895000000
C    -0.203000000     0.722000000     0.752000000
H    -1.003000000     1.207000000     1.175000000
C     1.078000000     0.759000000     1.299000000
H     1.112000000     1.255000000     2.266000000
C     2.094000000    -0.078000000     0.749000000
H     3.045000000    -0.174000000     1.267000000
C     1.905000000    -0.707000000    -0.459000000
C     2.975000000    -1.636000000    -1.103000000
O     3.809000000    -2.138000000    -0.353000000
O     3.151000000    -1.765000000    -2.306000000
