14
-88.23933
C    -0.400000000     1.057000000    -2.460000000
H    -1.088000000     0.901000000    -3.287000000
C    -0.508000000     0.452000000    -1.153000000
H    -1.338000000    -0.162000000    -0.815000000
C     0.429000000     0.832000000    -0.193000000
H     0.328000000     0.460000000     0.911000000
C     1.514000000     1.661000000    -0.498000000
H     2.338000000     1.888000000     0.174000000
C     1.577000000     2.235000000    -1.773000000
H     2.428000000     2.845000000    -2.065000000
C     0.591000000     1.935000000    -2.713000000
C     0.680000000     2.592000000    -4.072000000
O     1.513000000     3.461000000    -4.375000000
O    -0.144000000     2.256000000    -4.910000000
