14
-78.49754
C     2.031000000    -0.078000000    -1.151000000
H     2.843000000    -0.206000000    -1.861000000
C     0.844000000    -0.737000000    -1.217000000
H     0.615000000    -1.398000000    -2.049000000
C    -0.057000000    -0.640000000    -0.222000000
H    -0.988000000    -1.334000000    -0.165000000
C     0.184000000     0.169000000     0.904000000
H    -0.505000000     0.187000000     1.744000000
C     1.370000000     0.908000000     0.942000000
H     1.645000000     1.487000000     1.820000000
C     2.342000000     0.805000000    -0.071000000
C     3.610000000     1.554000000     0.026000000
O     3.910000000     2.282000000     0.969000000
O     4.450000000     1.385000000    -0.778000000
