14
-86.73698
C     2.130000000    -0.673000000    -0.873000000
H     2.932000000    -0.899000000    -1.572000000
C     0.829000000    -0.687000000    -1.315000000
H     0.754000000    -0.929000000    -2.372000000
C    -0.231000000    -0.169000000    -0.550000000
H    -1.240000000    -0.045000000    -1.022000000
C     0.046000000     0.388000000     0.723000000
H    -0.741000000     0.816000000     1.340000000
C     1.338000000     0.267000000     1.205000000
H     1.590000000     0.342000000     2.260000000
C     2.356000000    -0.152000000     0.396000000
C     3.772000000    -0.190000000     1.024000000
O     4.060000000     0.561000000     1.974000000
O     4.572000000    -1.057000000     0.674000000
