14
-83.95556
C     2.011000000    -0.518000000    -1.022000000
H     2.909000000    -0.849000000    -1.538000000
C     0.787000000    -1.026000000    -1.468000000
H     0.729000000    -1.746000000    -2.280000000
C    -0.384000000    -0.556000000    -0.985000000
H    -1.363000000    -0.789000000    -1.323000000
C    -0.397000000     0.343000000     0.113000000
H    -1.373000000     0.646000000     0.483000000
C     0.813000000     0.877000000     0.460000000
H     0.837000000     1.589000000     1.280000000
C     2.046000000     0.549000000    -0.117000000
C     3.411000000     1.058000000     0.342000000
O     3.511000000     2.150000000     0.826000000
O     4.453000000     0.387000000     0.236000000
