14
-84.95808
C     2.749000000    -1.421000000    -0.872000000
H     3.483000000    -2.075000000    -1.335000000
C     1.536000000    -1.204000000    -1.458000000
H     1.250000000    -1.611000000    -2.424000000
C     0.550000000    -0.536000000    -0.757000000
H    -0.415000000    -0.372000000    -1.143000000
C     0.804000000    -0.143000000     0.544000000
H    -0.017000000     0.350000000     1.058000000
C     2.009000000    -0.310000000     1.166000000
H     2.088000000     0.176000000     2.135000000
C     3.072000000    -0.980000000     0.447000000
C     4.423000000    -1.133000000     1.027000000
O     4.817000000    -0.398000000     1.959000000
O     5.324000000    -1.775000000     0.399000000
