14
-81.89024
C     2.613000000    -1.026000000     0.168000000
H     3.173000000    -1.900000000    -0.152000000
C     1.367000000    -0.843000000    -0.417000000
H     1.000000000    -1.537000000    -1.169000000
C     0.647000000     0.220000000     0.062000000
H    -0.359000000     0.234000000    -0.376000000
C     1.092000000     1.123000000     0.992000000
H     0.362000000     1.821000000     1.396000000
C     2.364000000     0.919000000     1.519000000
H     2.754000000     1.453000000     2.382000000
C     3.091000000    -0.226000000     1.145000000
C     4.456000000    -0.477000000     1.761000000
O     4.835000000     0.168000000     2.695000000
O     5.163000000    -1.364000000     1.359000000
