14
-87.17951
C     2.175000000    -1.383000000     0.087000000
H     3.150000000    -1.774000000    -0.192000000
C     1.308000000    -1.015000000    -0.946000000
H     1.465000000    -1.346000000    -1.969000000
C     0.238000000    -0.253000000    -0.615000000
H    -0.504000000    -0.225000000    -1.473000000
C     0.003000000     0.162000000     0.677000000
H    -0.872000000     0.766000000     0.903000000
C     0.855000000    -0.205000000     1.699000000
H     0.667000000     0.135000000     2.714000000
C     1.984000000    -0.994000000     1.427000000
C     2.974000000    -1.462000000     2.497000000
O     2.964000000    -0.868000000     3.550000000
O     3.762000000    -2.384000000     2.304000000
