14
-89.73257
C     1.484000000    -1.173000000    -0.360000000
H     2.005000000    -1.824000000    -1.057000000
C     0.277000000    -0.547000000    -0.661000000
H    -0.160000000    -0.653000000    -1.650000000
C    -0.353000000     0.260000000     0.328000000
H    -1.359000000     0.671000000     0.077000000
C     0.346000000     0.610000000     1.459000000
H    -0.047000000     1.327000000     2.175000000
C     1.579000000    -0.018000000     1.719000000
H     2.044000000     0.129000000     2.690000000
C     2.160000000    -0.843000000     0.783000000
C     3.453000000    -1.468000000     1.200000000
O     4.074000000    -1.184000000     2.229000000
O     3.993000000    -2.216000000     0.367000000
