14
-81.12271
C     1.777000000    -1.603000000    -0.236000000
H     2.083000000    -2.305000000    -1.008000000
C     0.713000000    -0.804000000    -0.519000000
H     0.164000000    -0.949000000    -1.446000000
C     0.269000000     0.232000000     0.334000000
H    -0.635000000     0.858000000     0.163000000
C     0.987000000     0.544000000     1.472000000
H     0.662000000     1.441000000     1.993000000
C     2.211000000    -0.159000000     1.693000000
H     2.872000000     0.257000000     2.449000000
C     2.553000000    -1.215000000     0.860000000
C     3.863000000    -1.997000000     1.095000000
O     4.703000000    -1.572000000     1.868000000
O     4.246000000    -2.759000000     0.220000000
