14
-79.53755
C     2.048000000    -1.393000000    -0.217000000
H     2.613000000    -2.220000000    -0.640000000
C     0.667000000    -1.307000000    -0.473000000
H     0.123000000    -1.963000000    -1.147000000
C    -0.174000000    -0.460000000     0.323000000
H    -1.236000000    -0.326000000     0.119000000
C     0.455000000     0.412000000     1.192000000
H    -0.215000000     1.088000000     1.717000000
C     1.819000000     0.339000000     1.442000000
H     2.227000000     0.938000000     2.253000000
C     2.610000000    -0.591000000     0.757000000
C     4.094000000    -0.516000000     0.940000000
O     4.635000000     0.239000000     1.777000000
O     4.780000000    -1.322000000     0.444000000
