14
-93.57485
C     1.949000000     0.849000000    -0.248000000
H     2.632000000     1.590000000    -0.655000000
C     0.624000000     0.789000000    -0.706000000
H     0.248000000     1.536000000    -1.401000000
C    -0.260000000    -0.182000000    -0.181000000
H    -1.326000000    -0.077000000    -0.418000000
C     0.225000000    -1.133000000     0.687000000
H    -0.356000000    -1.951000000     1.105000000
C     1.509000000    -1.006000000     1.205000000
H     1.755000000    -1.774000000     1.934000000
C     2.394000000    -0.035000000     0.748000000
C     3.764000000     0.021000000     1.409000000
O     3.941000000    -0.648000000     2.425000000
O     4.527000000     0.806000000     0.893000000
