14
-88.75352
C     1.941000000     1.167000000     0.511000000
H     2.503000000     2.089000000     0.385000000
C     0.799000000     0.944000000    -0.308000000
H     0.427000000     1.605000000    -1.086000000
C    -0.016000000    -0.147000000    -0.106000000
H    -0.882000000    -0.292000000    -0.650000000
C     0.338000000    -1.107000000     0.840000000
H    -0.321000000    -1.958000000     0.995000000
C     1.607000000    -0.978000000     1.537000000
H     1.958000000    -1.791000000     2.167000000
C     2.352000000     0.190000000     1.422000000
C     3.620000000     0.344000000     2.281000000
O     4.103000000    -0.596000000     2.920000000
O     4.091000000     1.438000000     2.330000000
