14
-86.18594
C     1.856000000     0.928000000     0.456000000
H     2.699000000     1.613000000     0.417000000
C     0.820000000     1.174000000    -0.435000000
H     0.978000000     1.900000000    -1.228000000
C    -0.413000000     0.475000000    -0.304000000
H    -1.216000000     0.578000000    -1.049000000
C    -0.526000000    -0.533000000     0.660000000
H    -1.420000000    -1.148000000     0.708000000
C     0.541000000    -0.862000000     1.476000000
H     0.444000000    -1.701000000     2.159000000
C     1.751000000    -0.094000000     1.362000000
C     2.856000000    -0.338000000     2.415000000
O     2.725000000    -1.156000000     3.314000000
O     3.923000000     0.121000000     2.173000000
