14
-84.74667
C     2.844000000     0.361000000     1.734000000
H     3.267000000     1.356000000     1.844000000
C     1.592000000     0.279000000     1.079000000
H     1.158000000     1.199000000     0.695000000
C     0.867000000    -0.887000000     0.830000000
H    -0.063000000    -0.823000000     0.333000000
C     1.443000000    -2.077000000     1.316000000
H     0.908000000    -3.009000000     1.154000000
C     2.656000000    -2.102000000     1.986000000
H     2.951000000    -3.128000000     2.186000000
C     3.411000000    -0.914000000     2.225000000
C     4.613000000    -0.918000000     3.165000000
O     4.999000000    -2.028000000     3.605000000
O     5.241000000     0.097000000     3.299000000
