14
-86.03096
C     3.071000000     1.047000000     0.172000000
H     3.902000000     1.605000000    -0.251000000
C     1.820000000     1.119000000    -0.402000000
H     1.586000000     1.800000000    -1.216000000
C     0.812000000     0.308000000     0.061000000
H    -0.181000000     0.306000000    -0.448000000
C     1.074000000    -0.507000000     1.170000000
H     0.204000000    -1.034000000     1.554000000
C     2.314000000    -0.515000000     1.785000000
H     2.436000000    -1.121000000     2.680000000
C     3.328000000     0.218000000     1.237000000
C     4.722000000     0.329000000     1.818000000
O     4.909000000     0.086000000     2.987000000
O     5.672000000     0.490000000     1.100000000
