14
-90.83248
C     2.707000000     0.665000000     0.570000000
H     3.636000000     1.133000000     0.256000000
C     1.494000000     1.057000000     0.011000000
H     1.459000000     1.925000000    -0.642000000
C     0.335000000     0.392000000     0.338000000
H    -0.656000000     0.639000000    -0.084000000
C     0.356000000    -0.700000000     1.186000000
H    -0.571000000    -1.228000000     1.397000000
C     1.554000000    -1.120000000     1.648000000
H     1.667000000    -2.028000000     2.235000000
C     2.747000000    -0.394000000     1.414000000
C     4.054000000    -0.897000000     2.059000000
O     4.099000000    -1.823000000     2.901000000
O     5.111000000    -0.482000000     1.582000000
