14
-81.69973
C     2.563000000     0.615000000     0.472000000
H     3.377000000     1.237000000     0.109000000
C     1.404000000     0.677000000    -0.181000000
H     1.379000000     1.324000000    -1.054000000
C     0.307000000    -0.099000000     0.157000000
H    -0.569000000    -0.064000000    -0.378000000
C     0.361000000    -0.917000000     1.268000000
H    -0.529000000    -1.442000000     1.606000000
C     1.565000000    -0.929000000     2.031000000
H     1.697000000    -1.542000000     2.919000000
C     2.685000000    -0.272000000     1.552000000
C     4.053000000    -0.447000000     2.233000000
O     4.181000000    -1.181000000     3.203000000
O     4.905000000     0.287000000     1.918000000
