14
-87.74811
C     1.533000000     0.809000000    -0.128000000
H     2.001000000     1.623000000    -0.674000000
C     0.196000000     0.613000000    -0.300000000
H    -0.464000000     1.245000000    -0.889000000
C    -0.483000000    -0.472000000     0.380000000
H    -1.522000000    -0.624000000     0.292000000
C     0.238000000    -1.300000000     1.156000000
H    -0.318000000    -2.022000000     1.749000000
C     1.578000000    -1.131000000     1.332000000
H     2.170000000    -1.817000000     1.932000000
C     2.249000000    -0.009000000     0.744000000
C     3.706000000     0.179000000     0.977000000
O     4.173000000    -0.026000000     2.084000000
O     4.402000000     0.655000000     0.076000000
