14
-74.71377
C     2.282000000     0.750000000     0.498000000
H     2.889000000     1.633000000     0.311000000
C     1.032000000     0.583000000    -0.162000000
H     0.700000000     1.281000000    -0.926000000
C     0.331000000    -0.555000000     0.040000000
H    -0.514000000    -0.751000000    -0.574000000
C     0.689000000    -1.467000000     0.974000000
H     0.018000000    -2.285000000     1.225000000
C     1.813000000    -1.313000000     1.706000000
H     2.021000000    -1.991000000     2.530000000
C     2.672000000    -0.223000000     1.435000000
C     4.029000000    -0.068000000     2.050000000
O     4.416000000    -0.581000000     3.121000000
O     4.892000000     0.255000000     1.320000000
