14
-78.86651
C    -1.270000000     0.182000000    -1.686000000
H    -1.976000000     0.185000000    -2.513000000
C    -1.372000000    -0.825000000    -0.801000000
H    -2.181000000    -1.548000000    -0.869000000
C    -0.555000000    -0.922000000     0.354000000
H    -0.820000000    -1.780000000     1.036000000
C     0.509000000    -0.045000000     0.540000000
H     1.316000000    -0.189000000     1.253000000
C     0.552000000     1.112000000    -0.315000000
H     1.318000000     1.855000000    -0.110000000
C    -0.356000000     1.253000000    -1.417000000
C    -0.200000000     2.403000000    -2.400000000
O     0.573000000     3.315000000    -2.254000000
O    -0.820000000     2.383000000    -3.416000000
