14
-79.47266
C     2.256000000     0.680000000    -0.019000000
H     2.954000000     1.200000000    -0.669000000
C     0.911000000     0.667000000    -0.487000000
H     0.580000000     1.166000000    -1.395000000
C    -0.016000000    -0.137000000     0.250000000
H    -0.986000000    -0.147000000    -0.148000000
C     0.378000000    -0.781000000     1.383000000
H    -0.331000000    -1.390000000     1.937000000
C     1.779000000    -0.740000000     1.788000000
H     2.006000000    -1.399000000     2.623000000
C     2.741000000     0.044000000     1.140000000
C     4.140000000     0.064000000     1.594000000
O     4.407000000    -0.327000000     2.671000000
O     4.981000000     0.540000000     0.881000000
