14
-75.73158
C     1.752000000     0.728000000     0.196000000
H     2.277000000     1.519000000    -0.332000000
C     0.438000000     0.530000000    -0.087000000
H    -0.060000000     1.161000000    -0.818000000
C    -0.284000000    -0.509000000     0.494000000
H    -1.349000000    -0.653000000     0.333000000
C     0.377000000    -1.308000000     1.424000000
H    -0.206000000    -2.087000000     1.908000000
C     1.700000000    -1.134000000     1.708000000
H     2.277000000    -1.810000000     2.335000000
C     2.407000000    -0.077000000     1.133000000
C     3.782000000     0.112000000     1.674000000
O     4.269000000    -0.708000000     2.392000000
O     4.431000000     1.085000000     1.539000000
