14
-90.66161
C     2.160000000     0.044000000     0.591000000
H     2.979000000     0.426000000    -0.014000000
C     0.899000000     0.087000000    -0.009000000
H     0.685000000     0.649000000    -0.915000000
C    -0.159000000    -0.472000000     0.688000000
H    -1.163000000    -0.468000000     0.247000000
C     0.058000000    -1.157000000     1.902000000
H    -0.739000000    -1.681000000     2.425000000
C     1.331000000    -1.041000000     2.523000000
H     1.548000000    -1.494000000     3.486000000
C     2.371000000    -0.352000000     1.890000000
C     3.747000000    -0.192000000     2.588000000
O     3.930000000    -0.456000000     3.784000000
O     4.747000000    -0.047000000     1.829000000
