14
-87.02961
C     2.514000000    -1.081000000    -0.174000000
H     3.208000000    -1.543000000    -0.871000000
C     1.167000000    -0.898000000    -0.537000000
H     0.696000000    -1.378000000    -1.391000000
C     0.308000000    -0.185000000     0.297000000
H    -0.814000000    -0.154000000     0.214000000
C     0.842000000     0.388000000     1.481000000
H     0.175000000     0.892000000     2.176000000
C     2.191000000     0.234000000     1.805000000
H     2.616000000     0.850000000     2.594000000
C     3.056000000    -0.527000000     0.978000000
C     4.495000000    -0.794000000     1.335000000
O     4.857000000    -0.704000000     2.513000000
O     5.243000000    -1.406000000     0.574000000
