14
-85.60315
C    -1.224000000     0.373000000    -1.487000000
H    -2.046000000    -0.043000000    -2.065000000
C    -0.744000000    -0.258000000    -0.345000000
H    -1.183000000    -1.200000000    -0.026000000
C     0.331000000     0.271000000     0.343000000
H     0.770000000    -0.408000000     1.114000000
C     0.842000000     1.507000000    -0.035000000
H     1.669000000     1.976000000     0.493000000
C     0.268000000     2.199000000    -1.062000000
H     0.698000000     3.098000000    -1.497000000
C    -0.719000000     1.651000000    -1.876000000
C    -1.266000000     2.242000000    -3.154000000
O    -0.514000000     3.112000000    -3.648000000
O    -2.022000000     1.560000000    -3.807000000
