14
-84.73947
C     2.939000000    -0.476000000    -0.235000000
H     3.852000000    -0.808000000    -0.722000000
C     1.671000000    -0.498000000    -0.981000000
H     1.606000000    -0.805000000    -2.022000000
C     0.522000000    -0.007000000    -0.318000000
H    -0.384000000    -0.001000000    -0.921000000
C     0.542000000     0.464000000     0.966000000
H    -0.385000000     0.815000000     1.412000000
C     1.791000000     0.581000000     1.588000000
H     1.758000000     1.018000000     2.583000000
C     2.989000000     0.115000000     1.035000000
C     4.206000000     0.133000000     1.873000000
O     4.152000000     0.372000000     3.069000000
O     5.227000000    -0.194000000     1.356000000
