14
-88.71268
C     2.207000000    -1.341000000    -0.525000000
H     3.014000000    -2.046000000    -0.707000000
C     0.968000000    -1.532000000    -1.102000000
H     0.810000000    -2.351000000    -1.798000000
C    -0.084000000    -0.744000000    -0.815000000
H    -1.069000000    -1.002000000    -1.292000000
C     0.054000000     0.295000000     0.106000000
H    -0.795000000     0.932000000     0.341000000
C     1.326000000     0.490000000     0.700000000
H     1.494000000     1.332000000     1.366000000
C     2.420000000    -0.333000000     0.420000000
C     3.762000000    -0.215000000     1.170000000
O     3.963000000     0.671000000     1.975000000
O     4.599000000    -1.091000000     1.064000000
