14
-81.08799
C    -1.001000000     0.122000000    -1.283000000
H    -1.685000000    -0.434000000    -1.919000000
C    -0.526000000    -0.456000000    -0.045000000
H    -0.801000000    -1.496000000     0.109000000
C     0.442000000     0.171000000     0.717000000
H     0.883000000    -0.392000000     1.503000000
C     0.788000000     1.506000000     0.395000000
H     1.609000000     2.015000000     0.893000000
C     0.322000000     2.102000000    -0.766000000
H     0.682000000     3.125000000    -0.846000000
C    -0.519000000     1.418000000    -1.625000000
C    -0.779000000     2.060000000    -2.946000000
O    -0.427000000     3.171000000    -3.205000000
O    -1.272000000     1.400000000    -3.845000000
