14
-85.16498
C     2.182000000    -1.734000000    -0.290000000
H     2.769000000    -2.517000000    -0.764000000
C     0.836000000    -1.696000000    -0.585000000
H     0.482000000    -2.495000000    -1.230000000
C     0.040000000    -0.807000000     0.109000000
H    -0.996000000    -0.626000000    -0.173000000
C     0.617000000     0.075000000     1.021000000
H     0.009000000     0.779000000     1.584000000
C     1.987000000     0.116000000     1.277000000
H     2.443000000     0.820000000     1.970000000
C     2.828000000    -0.813000000     0.581000000
C     4.226000000    -0.985000000     0.968000000
O     4.668000000    -0.237000000     1.803000000
O     4.805000000    -1.960000000     0.580000000
