14
-89.35253
C     2.217000000    -1.593000000    -0.362000000
H     2.855000000    -2.296000000    -0.891000000
C     0.846000000    -1.547000000    -0.677000000
H     0.430000000    -2.120000000    -1.501000000
C     0.012000000    -0.644000000    -0.066000000
H    -1.064000000    -0.640000000    -0.380000000
C     0.493000000     0.280000000     0.813000000
H    -0.094000000     1.063000000     1.289000000
C     1.898000000     0.272000000     1.028000000
H     2.314000000     1.028000000     1.689000000
C     2.796000000    -0.659000000     0.519000000
C     4.263000000    -0.629000000     0.787000000
O     4.674000000     0.006000000     1.740000000
O     5.080000000    -1.257000000     0.095000000
