14
-82.62069
C     2.231000000    -0.345000000    -0.030000000
H     2.814000000    -0.925000000    -0.741000000
C     0.887000000    -0.167000000    -0.291000000
H     0.388000000    -0.673000000    -1.114000000
C     0.112000000     0.663000000     0.531000000
H    -0.906000000     0.677000000     0.312000000
C     0.764000000     1.502000000     1.424000000
H     0.186000000     2.315000000     1.854000000
C     2.150000000     1.399000000     1.523000000
H     2.584000000     2.165000000     2.159000000
C     2.938000000     0.456000000     0.839000000
C     4.426000000     0.286000000     0.974000000
O     5.089000000     1.043000000     1.654000000
O     5.070000000    -0.547000000     0.331000000
