14
-90.19397
C     2.638000000    -0.681000000    -0.826000000
H     3.226000000    -1.413000000    -1.373000000
C     1.199000000    -0.657000000    -0.791000000
H     0.660000000    -1.408000000    -1.363000000
C     0.551000000     0.245000000    -0.034000000
H    -0.484000000     0.210000000    -0.005000000
C     1.244000000     1.178000000     0.801000000
H     0.690000000     1.809000000     1.492000000
C     2.605000000     1.154000000     0.725000000
H     3.146000000     1.795000000     1.416000000
C     3.315000000     0.185000000     0.002000000
C     4.849000000     0.139000000     0.189000000
O     5.403000000     0.803000000     1.109000000
O     5.523000000    -0.563000000    -0.536000000
