14
-85.18758
C     2.044000000    -0.824000000    -0.478000000
H     2.871000000    -1.366000000    -0.931000000
C     0.706000000    -1.083000000    -0.649000000
H     0.338000000    -1.969000000    -1.160000000
C    -0.259000000    -0.199000000    -0.143000000
H    -1.298000000    -0.435000000    -0.344000000
C     0.177000000     0.981000000     0.430000000
H    -0.524000000     1.658000000     0.911000000
C     1.546000000     1.248000000     0.616000000
H     1.916000000     2.157000000     1.083000000
C     2.504000000     0.400000000     0.118000000
C     3.990000000     0.689000000     0.155000000
O     4.391000000     1.650000000     0.780000000
O     4.788000000    -0.145000000    -0.167000000
