14
-84.50656
C     3.061000000     0.036000000    -0.609000000
H     3.647000000    -0.491000000    -1.357000000
C     1.668000000    -0.003000000    -0.605000000
H     1.078000000    -0.553000000    -1.333000000
C     0.947000000     0.816000000     0.278000000
H    -0.082000000     0.664000000     0.375000000
C     1.629000000     1.692000000     1.076000000
H     0.966000000     2.185000000     1.783000000
C     3.023000000     1.818000000     1.032000000
H     3.561000000     2.504000000     1.682000000
C     3.730000000     0.944000000     0.212000000
C     5.229000000     0.939000000     0.302000000
O     5.856000000     1.775000000     0.897000000
O     5.820000000     0.266000000    -0.548000000
