14
-89.59189
C     1.995000000     0.687000000    -1.074000000
H     2.459000000     0.880000000    -2.038000000
C     0.607000000     0.579000000    -1.049000000
H     0.066000000     0.933000000    -1.923000000
C    -0.156000000     0.199000000     0.032000000
H    -1.189000000     0.070000000    -0.097000000
C     0.586000000    -0.156000000     1.194000000
H     0.084000000    -0.562000000     2.068000000
C     1.953000000     0.027000000     1.234000000
H     2.548000000    -0.178000000     2.120000000
C     2.715000000     0.355000000     0.100000000
C     4.292000000     0.501000000     0.080000000
O     4.876000000     0.083000000     1.099000000
O     4.858000000     1.212000000    -0.747000000
