14
-85.29099
C     1.991000000     0.944000000     0.224000000
H     2.621000000     1.647000000    -0.313000000
C     0.646000000     0.711000000    -0.126000000
H     0.230000000     1.123000000    -1.041000000
C    -0.218000000    -0.092000000     0.639000000
H    -1.238000000    -0.300000000     0.336000000
C     0.292000000    -0.808000000     1.729000000
H    -0.397000000    -1.472000000     2.245000000
C     1.621000000    -0.560000000     2.106000000
H     2.044000000    -1.081000000     2.961000000
C     2.506000000     0.332000000     1.392000000
C     3.795000000     0.655000000     2.037000000
O     4.204000000     0.145000000     3.072000000
O     4.490000000     1.494000000     1.532000000
