14
-77.84131
C     1.780000000     0.670000000     0.293000000
H     2.396000000     1.421000000    -0.192000000
C     0.396000000     0.429000000     0.000000000
H    -0.056000000     1.069000000    -0.754000000
C    -0.334000000    -0.500000000     0.722000000
H    -1.283000000    -0.670000000     0.438000000
C     0.263000000    -1.332000000     1.700000000
H    -0.362000000    -2.070000000     2.196000000
C     1.682000000    -1.081000000     1.964000000
H     2.221000000    -1.715000000     2.663000000
C     2.414000000    -0.088000000     1.256000000
C     3.878000000     0.223000000     1.712000000
O     4.334000000    -0.545000000     2.574000000
O     4.711000000     0.866000000     1.126000000
