14
-84.98949
C     2.264000000     0.740000000    -0.366000000
H     2.946000000     0.417000000    -1.149000000
C     0.916000000     0.547000000    -0.502000000
H     0.423000000     0.206000000    -1.409000000
C     0.086000000     0.868000000     0.558000000
H    -1.017000000     0.905000000     0.450000000
C     0.637000000     1.400000000     1.785000000
H     0.001000000     1.597000000     2.645000000
C     1.998000000     1.612000000     1.894000000
H     2.375000000     1.905000000     2.871000000
C     2.797000000     1.272000000     0.814000000
C     4.298000000     1.354000000     1.000000000
O     4.917000000     2.090000000     1.758000000
O     4.987000000     0.711000000     0.219000000
