14
-79.47134
C     2.351000000    -1.111000000     0.147000000
H     3.156000000    -1.820000000    -0.027000000
C     1.259000000    -1.140000000    -0.752000000
H     1.326000000    -1.868000000    -1.556000000
C     0.086000000    -0.310000000    -0.576000000
H    -0.711000000    -0.282000000    -1.351000000
C    -0.018000000     0.495000000     0.538000000
H    -0.930000000     1.043000000     0.761000000
C     1.119000000     0.656000000     1.349000000
H     1.177000000     1.341000000     2.191000000
C     2.258000000    -0.115000000     1.112000000
C     3.346000000     0.124000000     2.051000000
O     3.602000000     1.259000000     2.404000000
O     4.090000000    -0.763000000     2.295000000
