14
-79.83421
C     2.631000000     0.769000000     0.478000000
H     3.520000000     1.347000000     0.237000000
C     1.625000000     0.607000000    -0.474000000
H     1.707000000     0.938000000    -1.506000000
C     0.464000000     0.026000000    -0.210000000
H    -0.407000000     0.063000000    -0.943000000
C     0.264000000    -0.574000000     1.110000000
H    -0.738000000    -0.953000000     1.296000000
C     1.235000000    -0.367000000     2.140000000
H     1.024000000    -0.835000000     3.098000000
C     2.368000000     0.418000000     1.841000000
C     3.446000000     0.689000000     2.847000000
O     3.405000000     0.128000000     3.927000000
O     4.435000000     1.310000000     2.527000000
