14
-84.63664
C     1.936000000    -1.345000000     0.128000000
H     2.761000000    -2.024000000    -0.071000000
C     0.920000000    -1.268000000    -0.814000000
H     1.113000000    -1.797000000    -1.743000000
C    -0.156000000    -0.463000000    -0.710000000
H    -0.798000000    -0.359000000    -1.587000000
C    -0.385000000     0.152000000     0.524000000
H    -1.219000000     0.849000000     0.523000000
C     0.564000000     0.030000000     1.506000000
H     0.323000000     0.597000000     2.402000000
C     1.713000000    -0.727000000     1.378000000
C     2.646000000    -0.840000000     2.572000000
O     2.409000000    -0.207000000     3.593000000
O     3.798000000    -1.302000000     2.417000000
