14
-83.55765
C     2.537000000     1.764000000    -0.348000000
H     3.056000000     2.691000000    -0.578000000
C     1.316000000     1.656000000    -0.983000000
H     0.875000000     2.484000000    -1.532000000
C     0.474000000     0.609000000    -0.645000000
H    -0.556000000     0.558000000    -0.992000000
C     0.790000000    -0.271000000     0.440000000
H     0.165000000    -1.093000000     0.782000000
C     2.019000000    -0.167000000     1.145000000
H     2.296000000    -0.840000000     1.952000000
C     2.897000000     0.853000000     0.682000000
C     4.177000000     1.080000000     1.357000000
O     4.700000000     0.177000000     2.013000000
O     4.834000000     2.115000000     1.165000000
