14
-81.46183
C     2.023000000    -1.740000000     0.605000000
H     2.633000000    -2.637000000     0.534000000
C     0.949000000    -1.649000000    -0.271000000
H     0.766000000    -2.356000000    -1.076000000
C     0.107000000    -0.523000000    -0.063000000
H    -0.720000000    -0.329000000    -0.696000000
C     0.267000000     0.356000000     0.992000000
H    -0.422000000     1.192000000     1.081000000
C     1.357000000     0.256000000     1.747000000
H     1.594000000     0.995000000     2.508000000
C     2.296000000    -0.716000000     1.497000000
C     3.549000000    -0.743000000     2.375000000
O     3.797000000    -0.027000000     3.317000000
O     4.504000000    -1.390000000     1.908000000
