14
-87.70520
C     1.694000000    -1.352000000     0.517000000
H     2.397000000    -2.152000000     0.736000000
C     0.449000000    -1.709000000     0.016000000
H     0.237000000    -2.774000000    -0.036000000
C    -0.528000000    -0.693000000    -0.109000000
H    -1.528000000    -0.902000000    -0.493000000
C    -0.214000000     0.650000000     0.153000000
H    -0.871000000     1.496000000    -0.031000000
C     1.076000000     0.935000000     0.596000000
H     1.284000000     1.959000000     0.898000000
C     2.043000000    -0.056000000     0.850000000
C     3.408000000     0.324000000     1.410000000
O     3.697000000     1.438000000     1.750000000
O     4.241000000    -0.553000000     1.537000000
