14
-87.73697
C     2.091000000    -1.306000000     0.117000000
H     2.904000000    -1.946000000    -0.217000000
C     0.973000000    -1.136000000    -0.722000000
H     0.915000000    -1.730000000    -1.631000000
C    -0.030000000    -0.261000000    -0.329000000
H    -0.959000000    -0.201000000    -0.943000000
C     0.074000000     0.478000000     0.785000000
H    -0.608000000     1.316000000     0.904000000
C     1.142000000     0.298000000     1.688000000
H     1.030000000     0.782000000     2.655000000
C     2.178000000    -0.553000000     1.273000000
C     3.363000000    -0.682000000     2.227000000
O     3.405000000    -0.162000000     3.374000000
O     4.374000000    -1.239000000     1.818000000
