14
-78.36846
C     1.365000000    -1.297000000     0.279000000
H     1.947000000    -2.214000000     0.311000000
C     0.057000000    -1.362000000    -0.190000000
H    -0.519000000    -2.228000000    -0.506000000
C    -0.648000000    -0.169000000    -0.312000000
H    -1.707000000    -0.113000000    -0.805000000
C    -0.015000000     1.022000000     0.030000000
H    -0.538000000     1.960000000    -0.133000000
C     1.265000000     1.045000000     0.533000000
H     1.807000000     1.948000000     0.801000000
C     2.026000000    -0.136000000     0.676000000
C     3.455000000    -0.227000000     1.124000000
O     3.987000000     0.783000000     1.463000000
O     4.055000000    -1.235000000     1.196000000
