14
-83.57707
C    -0.711000000     0.352000000    -2.738000000
H    -1.168000000    -0.088000000    -3.621000000
C    -1.022000000    -0.118000000    -1.472000000
H    -1.864000000    -0.766000000    -1.245000000
C    -0.185000000     0.359000000    -0.442000000
H    -0.422000000    -0.018000000     0.556000000
C     0.963000000     1.112000000    -0.721000000
H     1.709000000     1.408000000     0.013000000
C     1.274000000     1.405000000    -2.015000000
H     2.249000000     1.832000000    -2.237000000
C     0.437000000     1.090000000    -3.069000000
C     0.863000000     1.375000000    -4.495000000
O     1.866000000     2.104000000    -4.714000000
O     0.001000000     1.273000000    -5.350000000
