14
-77.63954
C     1.893000000    -1.380000000     0.423000000
H     2.754000000    -2.043000000     0.422000000
C     0.689000000    -1.742000000    -0.084000000
H     0.530000000    -2.763000000    -0.422000000
C    -0.350000000    -0.898000000    -0.119000000
H    -1.312000000    -1.264000000    -0.555000000
C    -0.226000000     0.327000000     0.435000000
H    -1.023000000     1.063000000     0.369000000
C     1.000000000     0.710000000     0.875000000
H     1.091000000     1.776000000     1.064000000
C     2.078000000    -0.137000000     0.940000000
C     3.434000000     0.400000000     1.388000000
O     3.616000000     1.533000000     1.857000000
O     4.332000000    -0.398000000     1.520000000
