14
-86.73055
C     1.895000000    -2.041000000    -0.018000000
H     2.393000000    -2.992000000     0.155000000
C     0.478000000    -1.960000000    -0.017000000
H    -0.087000000    -2.879000000     0.118000000
C    -0.121000000    -0.717000000    -0.119000000
H    -1.174000000    -0.781000000    -0.213000000
C     0.662000000     0.391000000    -0.304000000
H     0.045000000     1.266000000    -0.496000000
C     2.012000000     0.343000000    -0.310000000
H     2.562000000     1.270000000    -0.447000000
C     2.670000000    -0.864000000    -0.098000000
C     4.114000000    -0.873000000     0.218000000
O     4.783000000     0.201000000     0.264000000
O     4.624000000    -1.937000000     0.454000000
