14
-80.86294
C     2.617000000    -0.855000000    -0.581000000
H     3.520000000    -1.342000000    -0.940000000
C     1.395000000    -1.397000000    -0.833000000
H     1.394000000    -2.322000000    -1.403000000
C     0.251000000    -0.762000000    -0.378000000
H    -0.720000000    -1.271000000    -0.461000000
C     0.353000000     0.390000000     0.377000000
H    -0.568000000     0.816000000     0.765000000
C     1.598000000     0.907000000     0.690000000
H     1.670000000     1.801000000     1.304000000
C     2.750000000     0.303000000     0.205000000
C     4.152000000     0.868000000     0.549000000
O     4.280000000     1.547000000     1.499000000
O     5.193000000     0.392000000     0.100000000
