14
-78.03840
C     2.117000000    -1.563000000    -0.357000000
H     2.494000000    -2.580000000    -0.431000000
C     0.742000000    -1.347000000    -0.332000000
H    -0.028000000    -2.108000000    -0.431000000
C     0.171000000    -0.102000000    -0.054000000
H    -0.952000000     0.000000000    -0.088000000
C     0.980000000     1.039000000     0.207000000
H     0.645000000     2.063000000     0.348000000
C     2.381000000     0.831000000     0.215000000
H     2.892000000     1.757000000     0.471000000
C     2.969000000    -0.433000000    -0.049000000
C     4.399000000    -0.516000000     0.079000000
O     4.976000000     0.226000000     0.839000000
O     4.966000000    -1.562000000    -0.267000000
