14
-76.74404
C     2.278000000    -1.919000000    -0.613000000
H     3.067000000    -2.624000000    -0.862000000
C     0.903000000    -2.245000000    -0.467000000
H     0.593000000    -3.286000000    -0.518000000
C     0.037000000    -1.230000000    -0.269000000
H    -0.978000000    -1.434000000    -0.199000000
C     0.444000000     0.068000000    -0.196000000
H    -0.248000000     0.882000000     0.006000000
C     1.854000000     0.340000000    -0.288000000
H     2.365000000     1.257000000    -0.007000000
C     2.792000000    -0.665000000    -0.453000000
C     4.326000000    -0.378000000    -0.364000000
O     4.791000000     0.615000000     0.099000000
O     5.064000000    -1.179000000    -0.864000000
