14
-85.73353
C     1.280000000    -1.782000000     1.166000000
H     1.756000000    -2.570000000     1.744000000
C     0.089000000    -1.194000000     1.581000000
H    -0.461000000    -1.596000000     2.428000000
C    -0.517000000    -0.218000000     0.722000000
H    -1.534000000     0.108000000     0.987000000
C     0.064000000     0.078000000    -0.507000000
H    -0.483000000     0.821000000    -1.082000000
C     1.268000000    -0.567000000    -0.883000000
H     1.701000000    -0.289000000    -1.841000000
C     1.891000000    -1.484000000    -0.082000000
C     3.224000000    -2.090000000    -0.458000000
O     3.874000000    -1.810000000    -1.465000000
O     3.720000000    -2.896000000     0.280000000
