14
-83.22331
C     1.788000000    -2.145000000     0.790000000
H     2.243000000    -3.053000000     1.177000000
C     0.455000000    -1.881000000     1.090000000
H    -0.132000000    -2.571000000     1.691000000
C    -0.183000000    -0.762000000     0.525000000
H    -1.208000000    -0.633000000     0.774000000
C     0.578000000     0.194000000    -0.145000000
H     0.143000000     0.954000000    -0.789000000
C     1.966000000    -0.126000000    -0.444000000
H     2.487000000     0.618000000    -1.041000000
C     2.535000000    -1.342000000    -0.011000000
C     3.964000000    -1.776000000    -0.340000000
O     4.750000000    -0.995000000    -0.788000000
O     4.309000000    -2.911000000    -0.124000000
