14
-87.34410
C     1.960000000    -1.350000000     1.063000000
H     2.560000000    -1.861000000     1.812000000
C     0.554000000    -1.132000000     1.233000000
H    -0.048000000    -1.584000000     2.017000000
C    -0.128000000    -0.432000000     0.301000000
H    -1.223000000    -0.190000000     0.385000000
C     0.564000000     0.286000000    -0.702000000
H    -0.029000000     0.949000000    -1.327000000
C     1.920000000    -0.046000000    -0.933000000
H     2.357000000     0.226000000    -1.890000000
C     2.662000000    -0.848000000    -0.078000000
C     4.114000000    -1.233000000    -0.393000000
O     4.793000000    -0.511000000    -1.135000000
O     4.528000000    -2.320000000    -0.020000000
