14
-87.30665
C     0.706000000    -1.238000000     1.252000000
H     0.984000000    -1.749000000     2.171000000
C    -0.234000000    -0.171000000     1.409000000
H    -0.626000000     0.063000000     2.395000000
C    -0.663000000     0.524000000     0.250000000
H    -1.423000000     1.295000000     0.326000000
C    -0.252000000     0.033000000    -0.977000000
H    -0.625000000     0.612000000    -1.817000000
C     0.785000000    -0.914000000    -1.144000000
H     1.193000000    -1.153000000    -2.123000000
C     1.223000000    -1.610000000     0.046000000
C     2.210000000    -2.689000000    -0.018000000
O     2.207000000    -3.436000000    -0.987000000
O     2.877000000    -2.899000000     0.979000000
