14
-78.13212
C     0.936000000    -1.429000000     1.616000000
H     1.427000000    -1.992000000     2.405000000
C    -0.042000000    -0.500000000     1.800000000
H    -0.469000000    -0.512000000     2.800000000
C    -0.575000000     0.208000000     0.674000000
H    -1.435000000     0.892000000     0.702000000
C    -0.025000000     0.051000000    -0.560000000
H    -0.421000000     0.569000000    -1.430000000
C     1.083000000    -0.841000000    -0.707000000
H     1.421000000    -0.945000000    -1.735000000
C     1.636000000    -1.520000000     0.405000000
C     2.700000000    -2.585000000     0.180000000
O     2.904000000    -2.968000000    -0.896000000
O     3.397000000    -2.920000000     1.115000000
