14
-87.00345
C     1.144000000    -1.934000000     1.611000000
H     1.076000000    -2.471000000     2.554000000
C     0.219000000    -0.872000000     1.334000000
H    -0.490000000    -0.672000000     2.133000000
C     0.190000000    -0.154000000     0.172000000
H    -0.619000000     0.587000000    -0.091000000
C     1.130000000    -0.420000000    -0.821000000
H     1.063000000     0.234000000    -1.687000000
C     2.157000000    -1.328000000    -0.545000000
H     2.941000000    -1.561000000    -1.261000000
C     2.123000000    -2.124000000     0.626000000
C     3.279000000    -3.029000000     0.822000000
O     4.032000000    -3.231000000    -0.089000000
O     3.426000000    -3.613000000     1.895000000
