14
-87.66722
C     0.509000000    -1.428000000     1.369000000
H     0.271000000    -1.603000000     2.416000000
C    -0.315000000    -0.514000000     0.696000000
H    -1.139000000    -0.065000000     1.246000000
C    -0.073000000    -0.181000000    -0.652000000
H    -0.652000000     0.591000000    -1.052000000
C     0.909000000    -0.815000000    -1.342000000
H     1.184000000    -0.594000000    -2.370000000
C     1.624000000    -1.866000000    -0.764000000
H     2.350000000    -2.394000000    -1.378000000
C     1.450000000    -2.190000000     0.630000000
C     2.235000000    -3.294000000     1.303000000
O     2.652000000    -4.196000000     0.596000000
O     2.619000000    -3.208000000     2.451000000
