14
-85.92969
C     1.625000000    -0.594000000     1.149000000
H     1.691000000    -1.032000000     2.142000000
C     0.380000000    -0.097000000     0.809000000
H    -0.495000000    -0.191000000     1.447000000
C     0.137000000     0.295000000    -0.486000000
H    -0.845000000     0.631000000    -0.828000000
C     1.175000000     0.230000000    -1.422000000
H     0.961000000     0.406000000    -2.473000000
C     2.408000000    -0.310000000    -1.162000000
H     3.093000000    -0.437000000    -1.996000000
C     2.661000000    -0.724000000     0.167000000
C     3.960000000    -1.405000000     0.425000000
O     4.805000000    -1.771000000    -0.421000000
O     4.218000000    -1.669000000     1.617000000
