14
-80.81055
C     2.931000000    -1.200000000     1.281000000
H     3.457000000    -1.427000000     2.205000000
C     2.193000000    -0.057000000     1.074000000
H     1.895000000     0.594000000     1.892000000
C     1.581000000     0.242000000    -0.127000000
H     1.077000000     1.138000000    -0.261000000
C     1.864000000    -0.595000000    -1.205000000
H     1.402000000    -0.356000000    -2.159000000
C     2.566000000    -1.733000000    -1.014000000
H     2.741000000    -2.317000000    -1.914000000
C     3.166000000    -2.080000000     0.230000000
C     4.038000000    -3.243000000     0.382000000
O     4.286000000    -3.960000000    -0.566000000
O     4.712000000    -3.359000000     1.366000000
