14
-82.73030
C    -1.530000000     0.271000000    -3.241000000
H    -2.367000000     0.570000000    -3.867000000
C    -1.730000000    -0.478000000    -2.037000000
H    -2.718000000    -0.859000000    -1.793000000
C    -0.680000000    -0.854000000    -1.200000000
H    -0.828000000    -1.323000000    -0.242000000
C     0.583000000    -0.488000000    -1.590000000
H     1.425000000    -0.729000000    -0.948000000
C     0.836000000     0.338000000    -2.727000000
H     1.816000000     0.682000000    -3.049000000
C    -0.276000000     0.779000000    -3.550000000
C    -0.058000000     1.602000000    -4.751000000
O     1.056000000     1.947000000    -5.126000000
O    -0.973000000     1.935000000    -5.439000000
