14
-90.36786
C     2.048000000    -0.918000000     0.796000000
H     2.683000000    -1.445000000     1.504000000
C     0.760000000    -0.415000000     1.086000000
H     0.400000000    -0.490000000     2.109000000
C    -0.061000000     0.124000000     0.058000000
H    -0.984000000     0.650000000     0.320000000
C     0.506000000     0.342000000    -1.157000000
H    -0.077000000     0.894000000    -1.890000000
C     1.804000000    -0.109000000    -1.425000000
H     2.214000000     0.000000000    -2.425000000
C     2.551000000    -0.806000000    -0.498000000
C     3.883000000    -1.455000000    -0.946000000
O     4.223000000    -1.270000000    -2.097000000
O     4.452000000    -2.283000000    -0.232000000
