14
-88.46311
C     1.380000000    -0.808000000     1.013000000
H     1.309000000    -1.384000000     1.932000000
C     0.262000000    -0.024000000     0.712000000
H    -0.486000000     0.085000000     1.493000000
C     0.085000000     0.452000000    -0.589000000
H    -0.855000000     1.092000000    -0.787000000
C     1.049000000     0.234000000    -1.530000000
H     0.967000000     0.488000000    -2.584000000
C     2.279000000    -0.282000000    -1.107000000
H     3.083000000    -0.236000000    -1.836000000
C     2.482000000    -0.815000000     0.193000000
C     3.758000000    -1.453000000     0.615000000
O     4.710000000    -1.645000000    -0.197000000
O     3.824000000    -1.856000000     1.782000000
