14
-86.03623
C    -2.027000000    -0.928000000     1.083000000
H    -2.790000000    -1.361000000     1.725000000
C    -0.704000000    -0.942000000     1.452000000
H    -0.396000000    -1.628000000     2.237000000
C     0.209000000    -0.149000000     0.762000000
H     1.265000000    -0.357000000     0.984000000
C    -0.164000000     0.461000000    -0.466000000
H     0.600000000     0.893000000    -1.107000000
C    -1.559000000     0.477000000    -0.814000000
H    -1.894000000     1.096000000    -1.642000000
C    -2.473000000    -0.140000000    -0.007000000
C    -3.957000000     0.114000000    -0.095000000
O    -4.451000000     0.768000000    -0.997000000
O    -4.695000000    -0.394000000     0.743000000
