14
-79.38613
C     0.393000000    -2.058000000     0.161000000
H     0.582000000    -2.606000000     1.080000000
C    -0.200000000    -0.769000000     0.244000000
H    -0.568000000    -0.380000000     1.190000000
C    -0.352000000    -0.008000000    -0.890000000
H    -0.840000000     0.876000000    -0.874000000
C     0.128000000    -0.469000000    -2.142000000
H     0.011000000     0.043000000    -3.093000000
C     0.622000000    -1.763000000    -2.229000000
H     0.757000000    -2.315000000    -3.156000000
C     0.814000000    -2.583000000    -1.098000000
C     1.426000000    -4.009000000    -1.159000000
O     1.751000000    -4.540000000    -2.194000000
O     1.909000000    -4.541000000    -0.166000000
