14
-88.36632
C    -1.182000000     0.023000000    -2.669000000
H    -1.876000000    -0.254000000    -3.458000000
C    -1.442000000    -0.329000000    -1.391000000
H    -2.378000000    -0.804000000    -1.107000000
C    -0.426000000    -0.122000000    -0.430000000
H    -0.507000000    -0.503000000     0.574000000
C     0.710000000     0.504000000    -0.772000000
H     1.516000000     0.606000000    -0.050000000
C     0.979000000     0.900000000    -2.070000000
H     1.948000000     1.208000000    -2.453000000
C    -0.002000000     0.667000000    -3.055000000
C     0.128000000     1.150000000    -4.511000000
O     1.221000000     1.496000000    -4.957000000
O    -0.867000000     1.306000000    -5.206000000
