14
-82.40038
C     1.853000000    -1.141000000     0.453000000
H     2.820000000    -1.075000000     0.945000000
C     0.866000000    -0.190000000     0.599000000
H     0.902000000     0.692000000     1.233000000
C    -0.413000000    -0.393000000     0.111000000
H    -1.124000000     0.412000000     0.240000000
C    -0.708000000    -1.533000000    -0.683000000
H    -1.589000000    -1.624000000    -1.313000000
C     0.342000000    -2.463000000    -0.977000000
H     0.154000000    -3.356000000    -1.569000000
C     1.621000000    -2.300000000    -0.293000000
C     2.689000000    -3.336000000    -0.435000000
O     2.433000000    -4.254000000    -1.148000000
O     3.791000000    -3.276000000     0.100000000
