14
-86.15295
C     1.686000000    -0.769000000     0.113000000
H     2.722000000    -0.526000000     0.336000000
C     0.735000000     0.221000000     0.186000000
H     1.041000000     1.257000000     0.307000000
C    -0.596000000    -0.089000000    -0.109000000
H    -1.321000000     0.746000000     0.024000000
C    -0.917000000    -1.438000000    -0.483000000
H    -1.925000000    -1.746000000    -0.748000000
C     0.004000000    -2.434000000    -0.409000000
H    -0.288000000    -3.461000000    -0.613000000
C     1.366000000    -2.088000000    -0.155000000
C     2.490000000    -3.199000000    -0.176000000
O     2.276000000    -4.348000000    -0.528000000
O     3.619000000    -2.795000000    -0.092000000
