14
-91.81550
C     2.697000000    -0.965000000    -0.204000000
H     3.774000000    -0.852000000    -0.102000000
C     1.870000000     0.134000000     0.066000000
H     2.366000000     1.050000000     0.375000000
C     0.483000000     0.078000000     0.065000000
H    -0.031000000     0.943000000     0.410000000
C    -0.114000000    -1.104000000    -0.310000000
H    -1.191000000    -1.156000000    -0.449000000
C     0.692000000    -2.228000000    -0.576000000
H     0.235000000    -3.141000000    -0.947000000
C     2.066000000    -2.182000000    -0.561000000
C     2.829000000    -3.472000000    -0.760000000
O     2.252000000    -4.395000000    -1.329000000
O     3.930000000    -3.609000000    -0.284000000
