14
-82.93658
C     1.774000000    -0.456000000    -0.038000000
H     2.801000000    -0.619000000    -0.354000000
C     1.368000000     0.789000000     0.392000000
H     2.085000000     1.567000000     0.640000000
C     0.004000000     1.053000000     0.538000000
H    -0.343000000     1.986000000     0.816000000
C    -0.831000000     0.004000000     0.285000000
H    -1.902000000     0.185000000     0.321000000
C    -0.405000000    -1.230000000    -0.157000000
H    -1.112000000    -1.994000000    -0.472000000
C     0.912000000    -1.482000000    -0.420000000
C     1.374000000    -2.667000000    -1.088000000
O     0.584000000    -3.412000000    -1.642000000
O     2.565000000    -2.915000000    -1.134000000
