14
-80.64302
C     2.295000000    -0.746000000    -0.412000000
H     3.376000000    -0.853000000    -0.390000000
C     1.822000000     0.434000000     0.165000000
H     2.537000000     1.151000000     0.560000000
C     0.483000000     0.593000000     0.298000000
H     0.093000000     1.466000000     0.825000000
C    -0.362000000    -0.430000000    -0.126000000
H    -1.431000000    -0.285000000     0.006000000
C     0.114000000    -1.481000000    -0.907000000
H    -0.640000000    -2.145000000    -1.322000000
C     1.484000000    -1.673000000    -1.097000000
C     2.128000000    -2.793000000    -1.902000000
O     1.644000000    -3.857000000    -1.967000000
O     3.274000000    -2.597000000    -2.213000000
