14
-88.68271
C     1.844000000    -0.540000000    -0.272000000
H     2.867000000    -0.879000000    -0.418000000
C     1.578000000     0.644000000     0.387000000
H     2.381000000     1.316000000     0.678000000
C     0.237000000     1.058000000     0.666000000
H     0.010000000     1.985000000     1.142000000
C    -0.789000000     0.287000000     0.207000000
H    -1.842000000     0.520000000     0.336000000
C    -0.505000000    -0.926000000    -0.396000000
H    -1.268000000    -1.565000000    -0.832000000
C     0.807000000    -1.324000000    -0.712000000
C     1.039000000    -2.604000000    -1.623000000
O     0.143000000    -3.237000000    -2.210000000
O     2.197000000    -3.132000000    -1.557000000
