14
-85.81806
C     2.140000000    -1.632000000    -0.915000000
H     3.225000000    -1.603000000    -0.959000000
C     1.396000000    -0.391000000    -0.913000000
H     2.018000000     0.499000000    -0.948000000
C     0.011000000    -0.435000000    -0.895000000
H    -0.525000000     0.462000000    -0.947000000
C    -0.690000000    -1.608000000    -0.672000000
H    -1.755000000    -1.484000000    -0.493000000
C    -0.006000000    -2.825000000    -0.634000000
H    -0.574000000    -3.748000000    -0.556000000
C     1.426000000    -2.862000000    -0.857000000
C     2.159000000    -4.138000000    -0.905000000
O     1.656000000    -5.178000000    -0.590000000
O     3.313000000    -4.145000000    -1.363000000
