14
-75.78772
C     2.571000000    -1.327000000    -0.156000000
H     3.561000000    -1.667000000    -0.450000000
C     1.993000000    -0.156000000    -0.642000000
H     2.513000000     0.497000000    -1.338000000
C     0.666000000     0.147000000    -0.239000000
H     0.258000000     1.085000000    -0.601000000
C    -0.061000000    -0.791000000     0.475000000
H    -1.120000000    -0.660000000     0.682000000
C     0.569000000    -1.927000000     0.975000000
H    -0.012000000    -2.718000000     1.442000000
C     1.871000000    -2.224000000     0.599000000
C     2.485000000    -3.620000000     0.904000000
O     1.708000000    -4.490000000     1.139000000
O     3.516000000    -3.935000000     0.397000000
