14
-90.63879
C    -0.327000000    -0.076000000    -1.945000000
H    -1.186000000    -0.323000000    -2.564000000
C    -0.273000000    -0.394000000    -0.580000000
H    -1.136000000    -0.914000000    -0.171000000
C     0.800000000    -0.026000000     0.196000000
H     0.772000000    -0.132000000     1.277000000
C     1.860000000     0.619000000    -0.462000000
H     2.726000000     0.933000000     0.114000000
C     1.857000000     0.871000000    -1.813000000
H     2.778000000     1.237000000    -2.260000000
C     0.729000000     0.508000000    -2.595000000
C     0.695000000     0.718000000    -4.107000000
O     1.530000000     1.457000000    -4.617000000
O    -0.153000000     0.235000000    -4.847000000
