14
-84.48908
C     2.457000000    -0.915000000     0.127000000
H     3.541000000    -0.970000000     0.088000000
C     1.755000000     0.223000000    -0.358000000
H     2.212000000     1.132000000    -0.741000000
C     0.359000000     0.166000000    -0.212000000
H    -0.176000000     1.028000000    -0.553000000
C    -0.274000000    -0.949000000     0.315000000
H    -1.353000000    -1.076000000     0.355000000
C     0.460000000    -2.011000000     0.817000000
H    -0.005000000    -2.890000000     1.258000000
C     1.825000000    -1.992000000     0.730000000
C     2.540000000    -3.254000000     1.029000000
O     1.938000000    -4.290000000     1.367000000
O     3.712000000    -3.184000000     1.093000000
