14
-91.44223
C     1.954000000    -0.784000000    -0.116000000
H     2.964000000    -1.095000000    -0.370000000
C     1.560000000     0.506000000    -0.298000000
H     2.313000000     1.254000000    -0.532000000
C     0.235000000     0.833000000     0.025000000
H    -0.045000000     1.878000000    -0.076000000
C    -0.669000000    -0.156000000     0.330000000
H    -1.723000000     0.083000000     0.441000000
C    -0.275000000    -1.503000000     0.485000000
H    -0.957000000    -2.299000000     0.773000000
C     1.070000000    -1.824000000     0.245000000
C     1.540000000    -3.313000000     0.376000000
O     0.773000000    -4.173000000     0.712000000
O     2.707000000    -3.620000000     0.069000000
