14
-85.63328
C     2.476000000    -1.122000000    -0.245000000
H     3.553000000    -1.250000000    -0.325000000
C     1.885000000     0.094000000    -0.403000000
H     2.421000000     1.000000000    -0.673000000
C     0.541000000     0.243000000    -0.087000000
H     0.005000000     1.218000000    -0.130000000
C    -0.260000000    -0.855000000     0.011000000
H    -1.343000000    -0.809000000     0.087000000
C     0.283000000    -2.112000000     0.164000000
H    -0.310000000    -3.022000000     0.214000000
C     1.642000000    -2.243000000     0.032000000
C     2.326000000    -3.583000000    -0.007000000
O     1.741000000    -4.623000000     0.247000000
O     3.512000000    -3.620000000    -0.263000000
