14
-78.82554
C     2.290000000    -1.961000000     0.225000000
H     3.291000000    -2.383000000     0.258000000
C     1.953000000    -0.639000000    -0.166000000
H     2.741000000     0.096000000    -0.312000000
C     0.654000000    -0.208000000    -0.102000000
H     0.429000000     0.792000000    -0.417000000
C    -0.403000000    -1.069000000     0.174000000
H    -1.447000000    -0.767000000     0.171000000
C    -0.050000000    -2.382000000     0.496000000
H    -0.770000000    -3.149000000     0.770000000
C     1.252000000    -2.853000000     0.534000000
C     1.588000000    -4.323000000     0.961000000
O     0.661000000    -5.069000000     1.111000000
O     2.648000000    -4.806000000     1.194000000
