14
-90.78902
C     2.005000000    -1.493000000     0.138000000
H     3.065000000    -1.733000000     0.127000000
C     1.634000000    -0.162000000     0.282000000
H     2.461000000     0.544000000     0.310000000
C     0.280000000     0.252000000     0.381000000
H     0.032000000     1.276000000     0.378000000
C    -0.731000000    -0.693000000     0.333000000
H    -1.766000000    -0.392000000     0.475000000
C    -0.358000000    -2.006000000     0.103000000
H    -1.237000000    -2.642000000     0.033000000
C     0.983000000    -2.447000000    -0.054000000
C     1.310000000    -3.864000000    -0.445000000
O     0.451000000    -4.542000000    -1.002000000
O     2.510000000    -4.200000000    -0.409000000
