14
-90.89543
C    -0.548000000    -0.414000000    -2.730000000
H    -1.125000000    -0.947000000    -3.482000000
C    -0.847000000    -0.675000000    -1.363000000
H    -1.665000000    -1.337000000    -1.093000000
C    -0.069000000    -0.097000000    -0.349000000
H    -0.276000000    -0.423000000     0.645000000
C     0.934000000     0.779000000    -0.650000000
H     1.518000000     1.256000000     0.133000000
C     1.285000000     1.019000000    -2.036000000
H     2.114000000     1.697000000    -2.219000000
C     0.578000000     0.370000000    -3.058000000
C     0.983000000     0.534000000    -4.485000000
O     1.953000000     1.263000000    -4.744000000
O     0.292000000     0.108000000    -5.384000000
