14
-86.82686
C     2.063000000    -0.493000000    -0.719000000
H     2.980000000    -0.036000000    -1.082000000
C     1.059000000     0.359000000    -0.196000000
H     1.219000000     1.433000000    -0.243000000
C    -0.082000000    -0.086000000     0.421000000
H    -0.720000000     0.647000000     0.940000000
C    -0.359000000    -1.428000000     0.388000000
H    -1.263000000    -1.825000000     0.842000000
C     0.484000000    -2.277000000    -0.219000000
H     0.280000000    -3.345000000    -0.203000000
C     1.747000000    -1.827000000    -0.690000000
C     2.750000000    -2.817000000    -1.233000000
O     2.454000000    -4.006000000    -1.307000000
O     3.919000000    -2.513000000    -1.464000000
