14
-86.36452
C     1.886000000    -0.789000000    -0.992000000
H     2.862000000    -0.702000000    -1.462000000
C     1.228000000     0.322000000    -0.497000000
H     1.525000000     1.338000000    -0.746000000
C     0.020000000     0.187000000     0.170000000
H    -0.578000000     1.085000000     0.465000000
C    -0.445000000    -1.108000000     0.455000000
H    -1.309000000    -1.203000000     1.108000000
C     0.230000000    -2.198000000    -0.060000000
H    -0.195000000    -3.186000000     0.098000000
C     1.426000000    -2.106000000    -0.778000000
C     2.122000000    -3.314000000    -1.339000000
O     1.630000000    -4.405000000    -1.164000000
O     3.293000000    -3.267000000    -1.666000000
