14
-87.07132
C     1.880000000    -0.743000000    -1.120000000
H     2.609000000    -0.425000000    -1.861000000
C     0.927000000     0.188000000    -0.630000000
H     0.975000000     1.253000000    -0.843000000
C    -0.094000000    -0.202000000     0.222000000
H    -0.859000000     0.421000000     0.695000000
C    -0.139000000    -1.515000000     0.624000000
H    -0.969000000    -1.741000000     1.289000000
C     0.828000000    -2.402000000     0.147000000
H     0.846000000    -3.449000000     0.440000000
C     1.886000000    -2.053000000    -0.664000000
C     2.919000000    -3.033000000    -1.119000000
O     2.750000000    -4.166000000    -0.789000000
O     3.865000000    -2.638000000    -1.766000000
