14
-86.46177
C     2.681000000     0.146000000    -1.308000000
H     3.354000000     0.893000000    -1.721000000
C     1.422000000     0.410000000    -0.840000000
H     1.012000000     1.374000000    -1.132000000
C     0.601000000    -0.518000000    -0.216000000
H    -0.356000000    -0.179000000     0.144000000
C     1.158000000    -1.743000000     0.079000000
H     0.533000000    -2.445000000     0.625000000
C     2.417000000    -2.028000000    -0.421000000
H     2.801000000    -3.001000000    -0.127000000
C     3.188000000    -1.141000000    -1.131000000
C     4.548000000    -1.558000000    -1.606000000
O     5.173000000    -2.445000000    -1.083000000
O     5.074000000    -0.826000000    -2.426000000
