14
-82.62336
C     2.996000000     0.734000000    -1.193000000
H     3.941000000     1.085000000    -1.600000000
C     1.881000000     1.456000000    -0.758000000
H     1.806000000     2.520000000    -0.970000000
C     0.748000000     0.848000000    -0.270000000
H    -0.050000000     1.418000000     0.100000000
C     0.660000000    -0.530000000    -0.210000000
H    -0.267000000    -1.011000000     0.090000000
C     1.713000000    -1.268000000    -0.704000000
H     1.668000000    -2.354000000    -0.746000000
C     2.868000000    -0.681000000    -1.268000000
C     3.859000000    -1.523000000    -2.112000000
O     3.749000000    -2.766000000    -2.155000000
O     4.810000000    -1.079000000    -2.676000000
