14
-83.62432
C     3.229000000     0.437000000    -0.956000000
H     3.940000000     1.077000000    -1.471000000
C     1.880000000     0.815000000    -0.765000000
H     1.501000000     1.827000000    -0.888000000
C     0.898000000    -0.167000000    -0.411000000
H    -0.201000000     0.065000000    -0.314000000
C     1.318000000    -1.507000000    -0.205000000
H     0.624000000    -2.298000000     0.067000000
C     2.695000000    -1.811000000    -0.268000000
H     3.073000000    -2.815000000    -0.097000000
C     3.638000000    -0.917000000    -0.724000000
C     5.117000000    -1.229000000    -0.867000000
O     5.539000000    -2.398000000    -0.936000000
O     5.982000000    -0.397000000    -1.123000000
