14
-81.74230
C     1.472000000    -0.101000000    -1.358000000
H     1.842000000     0.641000000    -2.060000000
C     0.522000000     0.329000000    -0.448000000
H     0.268000000     1.375000000    -0.296000000
C    -0.052000000    -0.538000000     0.474000000
H    -0.801000000    -0.038000000     1.177000000
C     0.359000000    -1.892000000     0.531000000
H    -0.122000000    -2.547000000     1.254000000
C     1.382000000    -2.345000000    -0.342000000
H     1.643000000    -3.391000000    -0.206000000
C     1.873000000    -1.461000000    -1.356000000
C     3.039000000    -1.927000000    -2.189000000
O     3.632000000    -2.964000000    -1.982000000
O     3.312000000    -1.289000000    -3.153000000
