14
-92.09091
C     3.292000000    -0.399000000    -2.290000000
H     3.923000000     0.363000000    -2.740000000
C     1.916000000    -0.162000000    -2.370000000
H     1.534000000     0.706000000    -2.902000000
C     1.027000000    -0.962000000    -1.719000000
H    -0.010000000    -0.756000000    -1.825000000
C     1.490000000    -2.035000000    -0.993000000
H     0.811000000    -2.618000000    -0.375000000
C     2.863000000    -2.357000000    -0.989000000
H     3.251000000    -3.166000000    -0.376000000
C     3.801000000    -1.503000000    -1.633000000
C     5.267000000    -1.741000000    -1.692000000
O     5.642000000    -2.916000000    -1.468000000
O     6.074000000    -0.886000000    -2.079000000
