14
-81.70259
C     2.772000000    -0.681000000    -0.556000000
H     3.690000000    -0.302000000    -0.996000000
C     1.739000000     0.179000000    -0.286000000
H     1.720000000     1.159000000    -0.756000000
C     0.559000000    -0.247000000     0.244000000
H    -0.310000000     0.413000000     0.390000000
C     0.278000000    -1.604000000     0.436000000
H    -0.683000000    -1.913000000     0.838000000
C     1.314000000    -2.557000000     0.184000000
H     1.184000000    -3.619000000     0.378000000
C     2.540000000    -2.088000000    -0.399000000
C     3.644000000    -3.021000000    -0.717000000
O     3.462000000    -4.229000000    -0.665000000
O     4.694000000    -2.637000000    -1.162000000
