14
-79.71649
C     2.131000000     0.192000000    -1.978000000
H     2.700000000     0.812000000    -2.667000000
C     0.963000000     0.708000000    -1.439000000
H     0.696000000     1.752000000    -1.584000000
C     0.322000000    -0.001000000    -0.475000000
H    -0.465000000     0.480000000     0.042000000
C     0.582000000    -1.334000000    -0.373000000
H    -0.068000000    -1.981000000     0.210000000
C     1.704000000    -1.855000000    -0.964000000
H     1.859000000    -2.911000000    -0.755000000
C     2.595000000    -1.052000000    -1.630000000
C     3.760000000    -1.643000000    -2.326000000
O     3.766000000    -2.767000000    -2.819000000
O     4.652000000    -0.843000000    -2.644000000
