14
-85.32930
C     1.494000000     0.707000000    -1.981000000
H     2.152000000     1.466000000    -2.396000000
C     0.974000000     0.960000000    -0.708000000
H     1.217000000     1.927000000    -0.274000000
C     0.202000000     0.088000000    -0.006000000
H    -0.183000000     0.333000000     0.934000000
C    -0.049000000    -1.184000000    -0.562000000
H    -0.649000000    -1.953000000    -0.082000000
C     0.550000000    -1.519000000    -1.785000000
H     0.408000000    -2.514000000    -2.198000000
C     1.387000000    -0.566000000    -2.490000000
C     2.209000000    -1.000000000    -3.673000000
O     2.388000000    -2.159000000    -3.938000000
O     2.611000000    -0.151000000    -4.422000000
