14
-83.18925
C     2.442000000     0.839000000    -0.794000000
H     3.268000000     1.527000000    -0.953000000
C     1.131000000     1.208000000    -0.424000000
H     0.817000000     2.245000000    -0.326000000
C     0.076000000     0.328000000    -0.152000000
H    -0.917000000     0.664000000     0.164000000
C     0.285000000    -1.047000000    -0.276000000
H    -0.558000000    -1.691000000    -0.039000000
C     1.608000000    -1.482000000    -0.604000000
H     1.782000000    -2.549000000    -0.713000000
C     2.703000000    -0.560000000    -0.841000000
C     4.000000000    -1.201000000    -1.315000000
O     4.043000000    -2.390000000    -1.503000000
O     4.990000000    -0.561000000    -1.722000000
