14
-84.29315
C     1.298000000     1.199000000    -1.726000000
H     1.602000000     2.096000000    -2.260000000
C     0.556000000     1.275000000    -0.525000000
H     0.520000000     2.209000000     0.029000000
C    -0.023000000     0.101000000    -0.021000000
H    -0.585000000     0.143000000     0.914000000
C     0.127000000    -1.135000000    -0.705000000
H    -0.279000000    -2.002000000    -0.190000000
C     0.724000000    -1.223000000    -1.963000000
H     0.678000000    -2.130000000    -2.561000000
C     1.327000000    -0.043000000    -2.490000000
C     1.864000000    -0.119000000    -3.916000000
O     1.874000000    -1.095000000    -4.618000000
O     2.394000000     0.892000000    -4.310000000
