14
-88.92539
C     1.698000000     1.272000000    -1.847000000
H     2.482000000     1.987000000    -2.079000000
C     1.095000000     1.205000000    -0.561000000
H     1.361000000     1.992000000     0.140000000
C     0.070000000     0.312000000    -0.288000000
H    -0.459000000     0.353000000     0.678000000
C    -0.378000000    -0.610000000    -1.242000000
H    -1.053000000    -1.427000000    -0.997000000
C     0.188000000    -0.529000000    -2.532000000
H    -0.134000000    -1.216000000    -3.311000000
C     1.177000000     0.439000000    -2.873000000
C     1.716000000     0.539000000    -4.316000000
O     1.710000000    -0.508000000    -4.874000000
O     2.322000000     1.528000000    -4.728000000
