14
-90.42946
C    -1.058000000    -0.705000000    -2.535000000
H    -1.745000000    -1.240000000    -3.186000000
C    -1.176000000    -0.711000000    -1.159000000
H    -1.988000000    -1.294000000    -0.732000000
C    -0.282000000     0.048000000    -0.369000000
H    -0.279000000    -0.080000000     0.700000000
C     0.765000000     0.694000000    -0.980000000
H     1.528000000     1.237000000    -0.428000000
C     0.964000000     0.606000000    -2.372000000
H     1.790000000     1.166000000    -2.805000000
C    -0.004000000    -0.029000000    -3.194000000
C     0.129000000     0.017000000    -4.694000000
O     0.838000000     0.864000000    -5.176000000
O    -0.578000000    -0.681000000    -5.424000000
