14
-85.11728
C    -0.519000000    -0.488000000    -2.324000000
H    -1.092000000    -1.073000000    -3.038000000
C    -0.812000000    -0.822000000    -1.030000000
H    -1.536000000    -1.589000000    -0.766000000
C    -0.073000000    -0.165000000    -0.013000000
H    -0.358000000    -0.373000000     0.975000000
C     0.867000000     0.763000000    -0.353000000
H     1.389000000     1.188000000     0.500000000
C     1.017000000     1.209000000    -1.658000000
H     1.619000000     2.093000000    -1.853000000
C     0.452000000     0.422000000    -2.659000000
C     0.773000000     0.585000000    -4.136000000
O     1.402000000     1.594000000    -4.412000000
O     0.203000000    -0.083000000    -5.040000000
