14
-88.03010
C     1.759000000     0.496000000    -3.313000000
H     2.253000000     1.300000000    -3.852000000
C     0.951000000     0.904000000    -2.211000000
H     0.899000000     1.925000000    -1.842000000
C     0.217000000    -0.105000000    -1.548000000
H    -0.268000000     0.184000000    -0.659000000
C     0.286000000    -1.466000000    -1.873000000
H    -0.219000000    -2.192000000    -1.241000000
C     0.946000000    -1.855000000    -3.028000000
H     0.962000000    -2.904000000    -3.316000000
C     1.751000000    -0.877000000    -3.697000000
C     2.649000000    -1.266000000    -4.817000000
O     2.758000000    -2.433000000    -5.170000000
O     3.268000000    -0.404000000    -5.423000000
