14
-81.94000
C     0.892000000     0.373000000    -1.996000000
H     1.379000000     1.224000000    -2.465000000
C     0.350000000     0.466000000    -0.748000000
H     0.173000000     1.491000000    -0.431000000
C     0.072000000    -0.676000000    -0.008000000
H    -0.436000000    -0.420000000     0.957000000
C     0.163000000    -1.918000000    -0.494000000
H    -0.228000000    -2.795000000     0.015000000
C     0.586000000    -2.017000000    -1.832000000
H     0.770000000    -3.021000000    -2.205000000
C     1.033000000    -0.888000000    -2.571000000
C     1.953000000    -1.070000000    -3.784000000
O     2.625000000    -2.097000000    -3.927000000
O     2.034000000    -0.188000000    -4.607000000
