14
-83.51608
C     1.216000000     0.446000000    -2.582000000
H     1.648000000     1.140000000    -3.298000000
C     0.787000000     1.030000000    -1.412000000
H     1.096000000     2.062000000    -1.266000000
C     0.095000000     0.300000000    -0.466000000
H    -0.126000000     0.854000000     0.483000000
C    -0.238000000    -1.027000000    -0.724000000
H    -0.721000000    -1.623000000     0.046000000
C     0.222000000    -1.618000000    -1.893000000
H     0.011000000    -2.675000000    -2.038000000
C     0.844000000    -0.874000000    -2.874000000
C     1.371000000    -1.472000000    -4.108000000
O     1.602000000    -2.649000000    -4.151000000
O     1.817000000    -0.648000000    -4.873000000
