14
-78.21142
C     0.822000000     0.210000000    -1.944000000
H     1.149000000     1.089000000    -2.493000000
C     0.162000000     0.311000000    -0.721000000
H     0.134000000     1.292000000    -0.255000000
C    -0.365000000    -0.766000000    -0.079000000
H    -0.876000000    -0.506000000     0.937000000
C    -0.128000000    -2.000000000    -0.589000000
H    -0.283000000    -2.792000000     0.139000000
C     0.535000000    -2.165000000    -1.844000000
H     0.637000000    -3.180000000    -2.220000000
C     1.018000000    -1.023000000    -2.493000000
C     1.826000000    -1.201000000    -3.723000000
O     2.391000000    -2.244000000    -3.925000000
O     2.114000000    -0.262000000    -4.441000000
