14
-82.59378
C     2.052000000     0.102000000    -2.475000000
H     2.704000000     0.615000000    -3.177000000
C     1.546000000     0.906000000    -1.432000000
H     1.816000000     1.951000000    -1.301000000
C     0.611000000     0.394000000    -0.588000000
H     0.349000000     1.040000000     0.304000000
C     0.173000000    -0.881000000    -0.761000000
H    -0.485000000    -1.330000000    -0.022000000
C     0.583000000    -1.692000000    -1.789000000
H     0.307000000    -2.738000000    -1.896000000
C     1.568000000    -1.203000000    -2.716000000
C     2.078000000    -1.972000000    -3.924000000
O     1.551000000    -2.982000000    -4.246000000
O     2.923000000    -1.455000000    -4.744000000
