14
-92.11853
C     1.309000000     1.338000000    -2.481000000
H     1.661000000     2.209000000    -3.028000000
C     0.744000000     1.632000000    -1.272000000
H     0.722000000     2.658000000    -0.914000000
C     0.198000000     0.630000000    -0.473000000
H    -0.250000000     0.874000000     0.520000000
C     0.266000000    -0.707000000    -0.913000000
H    -0.235000000    -1.490000000    -0.350000000
C     0.922000000    -1.008000000    -2.135000000
H     0.937000000    -2.033000000    -2.497000000
C     1.449000000     0.011000000    -2.972000000
C     2.031000000    -0.227000000    -4.372000000
O     2.322000000    -1.396000000    -4.724000000
O     2.215000000     0.714000000    -5.090000000
