14
-83.61193
C     0.711000000     0.839000000    -2.763000000
H     1.209000000     1.743000000    -3.103000000
C     0.292000000     0.786000000    -1.458000000
H     0.314000000     1.654000000    -0.805000000
C    -0.424000000    -0.323000000    -1.052000000
H    -0.964000000    -0.355000000    -0.031000000
C    -0.365000000    -1.509000000    -1.816000000
H    -0.817000000    -2.439000000    -1.482000000
C     0.256000000    -1.462000000    -3.077000000
H     0.284000000    -2.397000000    -3.630000000
C     0.910000000    -0.292000000    -3.520000000
C     1.569000000    -0.260000000    -4.897000000
O     1.479000000    -1.248000000    -5.605000000
O     2.267000000     0.661000000    -5.164000000
