14
-85.16816
C     1.428000000     0.256000000    -2.140000000
H     2.112000000     0.796000000    -2.789000000
C     0.564000000     0.861000000    -1.236000000
H     0.495000000     1.945000000    -1.288000000
C    -0.179000000     0.105000000    -0.287000000
H    -0.843000000     0.566000000     0.491000000
C    -0.055000000    -1.233000000    -0.369000000
H    -0.667000000    -1.903000000     0.230000000
C     0.635000000    -1.846000000    -1.431000000
H     0.664000000    -2.933000000    -1.416000000
C     1.455000000    -1.138000000    -2.245000000
C     2.404000000    -1.790000000    -3.241000000
O     2.402000000    -3.039000000    -3.373000000
O     3.286000000    -1.179000000    -3.770000000
