14
-88.60271
C     1.769000000     0.050000000    -2.152000000
H     2.439000000     0.587000000    -2.819000000
C     1.132000000     0.703000000    -1.045000000
H     1.406000000     1.749000000    -0.934000000
C     0.252000000     0.012000000    -0.173000000
H    -0.199000000     0.517000000     0.691000000
C    -0.032000000    -1.346000000    -0.410000000
H    -0.726000000    -1.917000000     0.201000000
C     0.671000000    -1.941000000    -1.503000000
H     0.672000000    -3.027000000    -1.538000000
C     1.528000000    -1.319000000    -2.394000000
C     2.285000000    -2.163000000    -3.402000000
O     2.043000000    -3.327000000    -3.627000000
O     3.184000000    -1.593000000    -4.051000000
