14
-85.01454
C     1.406000000     1.014000000    -0.681000000
H     1.900000000     1.918000000    -1.029000000
C     0.309000000     1.113000000     0.189000000
H    -0.098000000     2.077000000     0.482000000
C    -0.257000000    -0.090000000     0.700000000
H    -1.160000000    -0.059000000     1.358000000
C     0.363000000    -1.266000000     0.425000000
H    -0.073000000    -2.211000000     0.739000000
C     1.487000000    -1.410000000    -0.398000000
H     2.020000000    -2.349000000    -0.522000000
C     2.035000000    -0.234000000    -0.906000000
C     3.345000000    -0.242000000    -1.774000000
O     3.871000000    -1.276000000    -2.151000000
O     4.053000000     0.764000000    -1.921000000
