14
-86.58520
C    -1.384000000    -1.883000000    -1.160000000
H    -1.343000000    -2.664000000    -1.915000000
C    -0.344000000    -0.933000000    -1.184000000
H     0.465000000    -1.086000000    -1.893000000
C    -0.285000000     0.049000000    -0.239000000
H     0.574000000     0.845000000    -0.244000000
C    -1.311000000     0.097000000     0.750000000
H    -1.333000000     0.843000000     1.541000000
C    -2.337000000    -0.859000000     0.721000000
H    -3.102000000    -0.831000000     1.493000000
C    -2.435000000    -1.848000000    -0.219000000
C    -3.505000000    -2.905000000    -0.198000000
O    -4.454000000    -2.761000000     0.532000000
O    -3.439000000    -3.818000000    -0.965000000
