14
-89.02164
C     1.253000000    -0.200000000    -1.196000000
H     2.079000000    -0.143000000    -1.900000000
C     0.487000000     0.915000000    -0.783000000
H     0.703000000     1.811000000    -1.360000000
C    -0.458000000     0.803000000     0.253000000
H    -1.102000000     1.615000000     0.466000000
C    -0.611000000    -0.443000000     0.874000000
H    -1.359000000    -0.601000000     1.646000000
C     0.117000000    -1.565000000     0.422000000
H    -0.019000000    -2.536000000     0.891000000
C     1.111000000    -1.399000000    -0.530000000
C     2.116000000    -2.497000000    -0.854000000
O     2.165000000    -3.519000000    -0.181000000
O     2.974000000    -2.310000000    -1.679000000
