14
-90.17890
C    -1.176000000     1.005000000    -1.971000000
H    -1.916000000     1.071000000    -2.765000000
C    -1.428000000     0.132000000    -0.896000000
H    -2.386000000    -0.381000000    -0.911000000
C    -0.538000000     0.069000000     0.168000000
H    -0.676000000    -0.495000000     1.096000000
C     0.630000000     0.793000000     0.085000000
H     1.375000000     0.624000000     0.859000000
C     0.891000000     1.652000000    -0.975000000
H     1.800000000     2.246000000    -1.019000000
C    -0.030000000     1.823000000    -2.047000000
C     0.218000000     2.768000000    -3.170000000
O     1.372000000     3.149000000    -3.526000000
O    -0.721000000     3.005000000    -3.917000000
