14
-87.31488
C    -1.559000000     0.324000000    -1.579000000
H    -2.395000000     0.113000000    -2.242000000
C    -1.545000000    -0.505000000    -0.446000000
H    -2.287000000    -1.282000000    -0.283000000
C    -0.503000000    -0.478000000     0.501000000
H    -0.477000000    -1.068000000     1.419000000
C     0.604000000     0.359000000     0.248000000
H     1.418000000     0.352000000     0.968000000
C     0.609000000     1.169000000    -0.935000000
H     1.498000000     1.766000000    -1.121000000
C    -0.496000000     1.168000000    -1.824000000
C    -0.551000000     2.157000000    -2.956000000
O     0.463000000     2.768000000    -3.204000000
O    -1.498000000     2.180000000    -3.695000000
