14
-85.81827
C    -0.355000000    -0.646000000    -1.988000000
H    -1.038000000    -1.408000000    -2.357000000
C    -0.062000000    -0.499000000    -0.639000000
H    -0.490000000    -1.219000000     0.053000000
C     0.712000000     0.496000000    -0.140000000
H     0.954000000     0.472000000     0.986000000
C     1.214000000     1.447000000    -1.046000000
H     1.863000000     2.253000000    -0.714000000
C     0.964000000     1.345000000    -2.417000000
H     1.323000000     2.102000000    -3.110000000
C     0.194000000     0.280000000    -2.855000000
C    -0.137000000     0.165000000    -4.310000000
O     0.513000000     0.742000000    -5.141000000
O    -1.030000000    -0.557000000    -4.647000000
