14
-93.53230
C    -1.305000000    -1.137000000    -2.343000000
H    -2.065000000    -1.828000000    -2.699000000
C    -1.069000000    -0.888000000    -0.996000000
H    -1.654000000    -1.371000000    -0.218000000
C    -0.008000000    -0.045000000    -0.631000000
H     0.313000000     0.067000000     0.411000000
C     0.790000000     0.552000000    -1.608000000
H     1.698000000     1.041000000    -1.264000000
C     0.511000000     0.416000000    -2.960000000
H     1.135000000     0.935000000    -3.684000000
C    -0.468000000    -0.500000000    -3.326000000
C    -0.808000000    -0.602000000    -4.808000000
O    -0.483000000     0.289000000    -5.617000000
O    -1.433000000    -1.613000000    -5.204000000
