14
-89.25735
C     0.729000000    -0.765000000    -2.796000000
H     1.042000000    -1.743000000    -3.152000000
C     0.652000000    -0.531000000    -1.437000000
H     0.624000000    -1.325000000    -0.695000000
C     0.323000000     0.736000000    -0.985000000
H     0.198000000     0.861000000     0.105000000
C     0.205000000     1.776000000    -1.896000000
H    -0.039000000     2.786000000    -1.578000000
C     0.506000000     1.595000000    -3.258000000
H     0.580000000     2.444000000    -3.932000000
C     0.613000000     0.270000000    -3.724000000
C     0.810000000     0.027000000    -5.200000000
O     0.539000000     0.929000000    -6.000000000
O     0.952000000    -1.119000000    -5.559000000
