14
-91.15941
C     1.017000000    -0.290000000    -2.405000000
H     1.717000000    -0.972000000    -2.882000000
C     0.786000000    -0.343000000    -0.981000000
H     1.345000000    -1.071000000    -0.399000000
C    -0.138000000     0.449000000    -0.436000000
H    -0.369000000     0.420000000     0.671000000
C    -0.828000000     1.358000000    -1.186000000
H    -1.489000000     2.081000000    -0.715000000
C    -0.522000000     1.582000000    -2.545000000
H    -1.044000000     2.385000000    -3.059000000
C     0.389000000     0.721000000    -3.173000000
C     0.640000000     0.862000000    -4.669000000
O     0.424000000     1.969000000    -5.169000000
O     1.182000000    -0.093000000    -5.196000000
