14
-86.83391
C     0.904000000    -0.948000000    -2.902000000
H     1.116000000    -1.493000000    -3.819000000
C     1.113000000    -1.467000000    -1.677000000
H     1.568000000    -2.450000000    -1.587000000
C     0.695000000    -0.795000000    -0.519000000
H     0.830000000    -1.214000000     0.485000000
C     0.064000000     0.437000000    -0.716000000
H    -0.219000000     1.063000000     0.127000000
C    -0.138000000     0.998000000    -1.957000000
H    -0.608000000     1.975000000    -2.038000000
C     0.206000000     0.234000000    -3.054000000
C     0.029000000     0.805000000    -4.403000000
O    -0.391000000     1.943000000    -4.459000000
O     0.196000000     0.125000000    -5.378000000
