14
-87.24785
C    -1.512000000    -0.636000000    -2.115000000
H    -2.140000000    -1.147000000    -2.839000000
C    -1.243000000    -1.306000000    -0.950000000
H    -1.714000000    -2.276000000    -0.808000000
C    -0.465000000    -0.654000000    -0.035000000
H    -0.310000000    -1.178000000     0.925000000
C     0.162000000     0.567000000    -0.291000000
H     0.666000000     0.974000000     0.581000000
C    -0.151000000     1.219000000    -1.496000000
H     0.333000000     2.190000000    -1.567000000
C    -0.963000000     0.597000000    -2.471000000
C    -1.375000000     1.282000000    -3.733000000
O    -0.984000000     2.454000000    -3.901000000
O    -2.199000000     0.796000000    -4.477000000
