14
-92.35918
C    -1.032000000     1.017000000    -2.016000000
H    -2.025000000     0.746000000    -2.367000000
C    -0.685000000     0.730000000    -0.705000000
H    -1.427000000     0.192000000    -0.120000000
C     0.572000000     1.128000000    -0.240000000
H     0.871000000     0.981000000     0.845000000
C     1.508000000     1.715000000    -1.086000000
H     2.489000000     2.053000000    -0.761000000
C     1.219000000     1.873000000    -2.468000000
H     1.916000000     2.317000000    -3.175000000
C    -0.044000000     1.441000000    -2.956000000
C    -0.467000000     1.574000000    -4.374000000
O     0.412000000     1.985000000    -5.133000000
O    -1.576000000     1.182000000    -4.754000000
