14
-83.68688
C    -1.655000000     0.187000000    -1.602000000
H    -2.584000000    -0.371000000    -1.686000000
C    -0.829000000    -0.026000000    -0.465000000
H    -1.142000000    -0.812000000     0.218000000
C     0.446000000     0.488000000    -0.433000000
H     0.995000000     0.275000000     0.422000000
C     0.790000000     1.531000000    -1.369000000
H     1.721000000     2.076000000    -1.234000000
C    -0.023000000     1.812000000    -2.391000000
H     0.343000000     2.502000000    -3.146000000
C    -1.283000000     1.141000000    -2.524000000
C    -2.226000000     1.591000000    -3.689000000
O    -1.990000000     2.610000000    -4.291000000
O    -3.047000000     0.816000000    -4.115000000
