14
-87.02241
C    -1.793000000     0.371000000    -2.139000000
H    -2.832000000     0.088000000    -2.285000000
C    -1.014000000    -0.394000000    -1.255000000
H    -1.458000000    -1.215000000    -0.698000000
C     0.333000000    -0.026000000    -1.041000000
H     0.891000000    -0.571000000    -0.306000000
C     0.939000000     1.075000000    -1.697000000
H     1.921000000     1.434000000    -1.401000000
C     0.160000000     1.827000000    -2.584000000
H     0.576000000     2.715000000    -3.053000000
C    -1.180000000     1.476000000    -2.810000000
C    -1.938000000     2.324000000    -3.835000000
O    -1.381000000     3.104000000    -4.543000000
O    -3.122000000     2.058000000    -4.134000000
