14
-90.00841
C    -2.173000000     0.172000000    -2.377000000
H    -3.140000000    -0.161000000    -2.745000000
C    -1.662000000    -0.528000000    -1.292000000
H    -2.222000000    -1.374000000    -0.900000000
C    -0.439000000    -0.144000000    -0.756000000
H    -0.017000000    -0.685000000     0.100000000
C     0.127000000     1.031000000    -1.238000000
H     0.985000000     1.404000000    -0.685000000
C    -0.335000000     1.792000000    -2.256000000
H     0.220000000     2.639000000    -2.651000000
C    -1.508000000     1.319000000    -2.892000000
C    -2.002000000     2.064000000    -4.126000000
O    -1.651000000     3.215000000    -4.343000000
O    -2.755000000     1.492000000    -4.898000000
