14
-90.51776
C    -1.891000000     0.008000000     1.240000000
H    -2.631000000    -0.268000000     1.986000000
C    -0.723000000    -0.727000000     1.082000000
H    -0.433000000    -1.578000000     1.694000000
C     0.267000000    -0.238000000     0.142000000
H     1.183000000    -0.697000000    -0.083000000
C    -0.160000000     0.722000000    -0.727000000
H     0.510000000     1.003000000    -1.536000000
C    -1.371000000     1.416000000    -0.554000000
H    -1.548000000     2.147000000    -1.339000000
C    -2.255000000     1.117000000     0.451000000
C    -3.511000000     1.929000000     0.672000000
O    -3.456000000     3.119000000     0.305000000
O    -4.463000000     1.412000000     1.246000000
