14
-83.99996
C    -1.626000000    -0.143000000    -1.536000000
H    -2.426000000    -0.671000000    -2.048000000
C    -0.904000000    -0.818000000    -0.563000000
H    -1.317000000    -1.781000000    -0.278000000
C     0.117000000    -0.203000000     0.096000000
H     0.556000000    -0.652000000     0.883000000
C     0.527000000     1.056000000    -0.337000000
H     1.418000000     1.526000000     0.072000000
C    -0.149000000     1.713000000    -1.454000000
H     0.183000000     2.686000000    -1.809000000
C    -1.239000000     1.130000000    -2.034000000
C    -1.899000000     1.818000000    -3.259000000
O    -1.514000000     2.884000000    -3.700000000
O    -2.727000000     1.211000000    -3.905000000
