14
-87.42616
C    -2.423000000     0.566000000    -1.725000000
H    -3.490000000     0.672000000    -1.903000000
C    -1.923000000    -0.250000000    -0.671000000
H    -2.575000000    -0.886000000    -0.078000000
C    -0.566000000    -0.165000000    -0.420000000
H    -0.082000000    -0.782000000     0.374000000
C     0.306000000     0.548000000    -1.293000000
H     1.371000000     0.577000000    -1.077000000
C    -0.248000000     1.435000000    -2.219000000
H     0.374000000     2.115000000    -2.796000000
C    -1.622000000     1.376000000    -2.495000000
C    -2.144000000     2.143000000    -3.675000000
O    -1.416000000     2.809000000    -4.359000000
O    -3.319000000     2.049000000    -3.867000000
