14
-89.31134
C    -1.347000000     0.202000000    -1.671000000
H    -2.144000000     0.028000000    -2.390000000
C    -1.203000000    -0.627000000    -0.581000000
H    -1.651000000    -1.617000000    -0.595000000
C    -0.282000000    -0.417000000     0.419000000
H    -0.197000000    -1.124000000     1.249000000
C     0.480000000     0.730000000     0.372000000
H     1.201000000     0.912000000     1.165000000
C     0.347000000     1.597000000    -0.677000000
H     0.894000000     2.536000000    -0.687000000
C    -0.567000000     1.366000000    -1.752000000
C    -0.706000000     2.453000000    -2.834000000
O    -0.138000000     3.503000000    -2.718000000
O    -1.467000000     2.280000000    -3.821000000
