14
-92.36700
C    -1.903000000     0.974000000    -1.274000000
H    -2.895000000     0.655000000    -1.584000000
C    -1.277000000     0.249000000    -0.263000000
H    -1.759000000    -0.654000000     0.104000000
C     0.037000000     0.596000000     0.159000000
H     0.403000000    -0.016000000     0.974000000
C     0.705000000     1.647000000    -0.434000000
H     1.712000000     1.859000000    -0.085000000
C     0.043000000     2.413000000    -1.409000000
H     0.579000000     3.192000000    -1.945000000
C    -1.244000000     2.080000000    -1.805000000
C    -1.836000000     2.797000000    -3.060000000
O    -1.142000000     3.542000000    -3.747000000
O    -2.983000000     2.538000000    -3.441000000
