14
-91.14617
C    -2.065000000     1.494000000    -1.623000000
H    -2.930000000     1.830000000    -2.190000000
C    -2.179000000     0.458000000    -0.718000000
H    -3.116000000    -0.047000000    -0.499000000
C    -1.039000000    -0.043000000    -0.153000000
H    -1.179000000    -0.961000000     0.357000000
C     0.197000000     0.563000000    -0.398000000
H     1.109000000     0.165000000     0.040000000
C     0.261000000     1.710000000    -1.153000000
H     1.246000000     2.149000000    -1.290000000
C    -0.853000000     2.129000000    -1.854000000
C    -0.741000000     3.235000000    -2.885000000
O     0.362000000     3.689000000    -3.246000000
O    -1.796000000     3.750000000    -3.377000000
