14
-89.04163
C    -1.457000000     0.213000000    -1.540000000
H    -2.207000000     0.131000000    -2.323000000
C    -1.546000000    -0.569000000    -0.403000000
H    -2.489000000    -1.088000000    -0.249000000
C    -0.564000000    -0.431000000     0.585000000
H    -0.723000000    -0.783000000     1.528000000
C     0.590000000     0.256000000     0.347000000
H     1.332000000     0.346000000     1.137000000
C     0.769000000     0.878000000    -0.906000000
H     1.663000000     1.458000000    -1.120000000
C    -0.308000000     0.991000000    -1.815000000
C    -0.314000000     2.043000000    -2.945000000
O     0.778000000     2.447000000    -3.310000000
O    -1.364000000     2.311000000    -3.557000000
