14
-86.75492
C    -1.792000000     0.108000000    -1.125000000
H    -2.689000000     0.061000000    -1.738000000
C    -1.805000000    -0.674000000     0.013000000
H    -2.596000000    -1.381000000     0.251000000
C    -0.599000000    -0.664000000     0.773000000
H    -0.524000000    -1.265000000     1.723000000
C     0.534000000     0.047000000     0.400000000
H     1.384000000    -0.027000000     1.073000000
C     0.501000000     0.857000000    -0.722000000
H     1.393000000     1.397000000    -1.029000000
C    -0.655000000     0.829000000    -1.560000000
C    -0.672000000     1.298000000    -3.004000000
O     0.281000000     1.864000000    -3.567000000
O    -1.617000000     0.972000000    -3.758000000
