14
-82.90880
C    -1.089000000     0.049000000    -1.223000000
H    -2.094000000    -0.351000000    -1.108000000
C    -0.101000000    -0.174000000    -0.234000000
H    -0.383000000    -0.797000000     0.611000000
C     1.096000000     0.505000000    -0.245000000
H     1.736000000     0.433000000     0.646000000
C     1.397000000     1.341000000    -1.267000000
H     2.310000000     1.928000000    -1.211000000
C     0.488000000     1.523000000    -2.364000000
H     0.671000000     2.288000000    -3.115000000
C    -0.753000000     0.864000000    -2.341000000
C    -1.821000000     1.117000000    -3.434000000
O    -1.436000000     1.719000000    -4.433000000
O    -2.816000000     0.482000000    -3.502000000
