14
-74.83647
C    -1.629000000     0.030000000    -1.666000000
H    -2.629000000    -0.362000000    -1.497000000
C    -0.684000000    -0.206000000    -0.619000000
H    -1.018000000    -0.695000000     0.293000000
C     0.552000000     0.355000000    -0.783000000
H     1.223000000     0.176000000     0.056000000
C     0.957000000     1.163000000    -1.865000000
H     1.986000000     1.485000000    -2.006000000
C    -0.013000000     1.408000000    -2.884000000
H     0.315000000     2.060000000    -3.689000000
C    -1.341000000     0.851000000    -2.805000000
C    -2.363000000     1.088000000    -3.874000000
O    -2.140000000     1.944000000    -4.707000000
O    -3.393000000     0.575000000    -3.878000000
