14
-86.34021
C    -1.484000000     1.175000000    -0.737000000
H    -2.209000000     1.862000000    -0.308000000
C    -0.570000000     0.547000000     0.150000000
H    -0.637000000     0.787000000     1.209000000
C     0.455000000    -0.273000000    -0.348000000
H     1.191000000    -0.680000000     0.331000000
C     0.522000000    -0.520000000    -1.680000000
H     1.246000000    -1.213000000    -2.099000000
C    -0.340000000     0.129000000    -2.529000000
H    -0.137000000     0.178000000    -3.595000000
C    -1.359000000     1.030000000    -2.104000000
C    -2.249000000     1.709000000    -3.137000000
O    -1.958000000     1.679000000    -4.326000000
O    -3.129000000     2.472000000    -2.803000000
