14
-91.22596
C    -1.692000000     0.679000000    -0.657000000
H    -2.537000000     1.359000000    -0.600000000
C    -0.612000000     0.818000000     0.247000000
H    -0.725000000     1.483000000     1.100000000
C     0.562000000     0.084000000     0.086000000
H     1.320000000     0.204000000     0.868000000
C     0.650000000    -0.847000000    -0.960000000
H     1.471000000    -1.547000000    -1.088000000
C    -0.469000000    -0.994000000    -1.796000000
H    -0.378000000    -1.581000000    -2.706000000
C    -1.637000000    -0.248000000    -1.688000000
C    -2.678000000    -0.336000000    -2.776000000
O    -2.537000000    -1.011000000    -3.820000000
O    -3.708000000     0.322000000    -2.656000000
