14
-86.00941
C    -2.165000000     0.515000000    -0.927000000
H    -2.995000000     1.209000000    -0.820000000
C    -1.056000000     0.739000000    -0.087000000
H    -1.003000000     1.650000000     0.505000000
C    -0.044000000    -0.221000000    -0.076000000
H     0.911000000    -0.168000000     0.603000000
C    -0.093000000    -1.321000000    -0.904000000
H     0.699000000    -2.058000000    -1.007000000
C    -1.153000000    -1.429000000    -1.835000000
H    -1.146000000    -2.203000000    -2.598000000
C    -2.267000000    -0.601000000    -1.730000000
C    -3.498000000    -0.723000000    -2.712000000
O    -3.608000000    -1.569000000    -3.594000000
O    -4.331000000     0.150000000    -2.653000000
