14
-83.33086
C    -2.246000000     0.552000000    -0.978000000
H    -2.764000000     1.488000000    -1.170000000
C    -1.082000000     0.600000000    -0.250000000
H    -0.736000000     1.501000000     0.250000000
C    -0.257000000    -0.553000000    -0.156000000
H     0.656000000    -0.603000000     0.328000000
C    -0.576000000    -1.714000000    -0.871000000
H     0.094000000    -2.568000000    -0.820000000
C    -1.804000000    -1.751000000    -1.522000000
H    -2.179000000    -2.656000000    -1.993000000
C    -2.664000000    -0.616000000    -1.592000000
C    -3.929000000    -0.758000000    -2.438000000
O    -4.116000000    -1.788000000    -2.998000000
O    -4.465000000     0.259000000    -2.843000000
