14
-80.83952
C    -2.049000000     0.601000000    -1.111000000
H    -2.694000000     1.475000000    -1.149000000
C    -0.853000000     0.823000000    -0.483000000
H    -0.572000000     1.748000000     0.014000000
C    -0.063000000    -0.298000000    -0.197000000
H     0.844000000    -0.147000000     0.362000000
C    -0.390000000    -1.539000000    -0.693000000
H     0.232000000    -2.417000000    -0.536000000
C    -1.559000000    -1.713000000    -1.476000000
H    -1.804000000    -2.755000000    -1.664000000
C    -2.458000000    -0.636000000    -1.546000000
C    -3.809000000    -0.790000000    -2.265000000
O    -4.320000000    -1.888000000    -2.373000000
O    -4.554000000     0.161000000    -2.420000000
