14
-84.34155
C    -2.948000000     0.991000000    -1.907000000
H    -3.523000000     1.685000000    -2.514000000
C    -1.698000000     1.428000000    -1.421000000
H    -1.299000000     2.426000000    -1.582000000
C    -0.891000000     0.592000000    -0.611000000
H     0.052000000     0.987000000    -0.288000000
C    -1.404000000    -0.687000000    -0.258000000
H    -0.844000000    -1.380000000     0.364000000
C    -2.572000000    -1.158000000    -0.859000000
H    -2.904000000    -2.153000000    -0.574000000
C    -3.403000000    -0.348000000    -1.686000000
C    -4.713000000    -0.867000000    -2.342000000
O    -4.933000000    -2.048000000    -2.543000000
O    -5.566000000    -0.116000000    -2.755000000
