14
-88.56122
C    -2.181000000     0.880000000    -2.089000000
H    -2.361000000     1.485000000    -2.974000000
C    -0.889000000     0.747000000    -1.503000000
H    -0.056000000     1.386000000    -1.785000000
C    -0.733000000    -0.104000000    -0.395000000
H     0.194000000    -0.288000000     0.077000000
C    -1.858000000    -0.887000000     0.043000000
H    -1.785000000    -1.447000000     0.972000000
C    -3.125000000    -0.801000000    -0.574000000
H    -3.946000000    -1.418000000    -0.218000000
C    -3.265000000     0.025000000    -1.674000000
C    -4.520000000    -0.020000000    -2.562000000
O    -5.382000000    -0.897000000    -2.466000000
O    -4.698000000     0.887000000    -3.346000000
