14
-87.58153
C    -2.252000000     1.547000000    -1.901000000
H    -2.201000000     2.282000000    -2.700000000
C    -1.024000000     1.182000000    -1.404000000
H    -0.189000000     1.739000000    -1.820000000
C    -0.821000000     0.237000000    -0.429000000
H     0.144000000     0.164000000     0.093000000
C    -1.985000000    -0.386000000     0.087000000
H    -1.788000000    -1.063000000     0.914000000
C    -3.266000000    -0.103000000    -0.455000000
H    -4.096000000    -0.701000000    -0.088000000
C    -3.400000000     0.833000000    -1.529000000
C    -4.796000000     1.111000000    -2.195000000
O    -5.787000000     0.577000000    -1.724000000
O    -4.822000000     1.664000000    -3.337000000
