14
-79.97568
C    -0.982000000     1.127000000    -2.319000000
H    -0.993000000     1.478000000    -3.347000000
C     0.223000000     0.786000000    -1.750000000
H     1.140000000     0.757000000    -2.333000000
C     0.298000000     0.352000000    -0.396000000
H     1.266000000    -0.082000000    -0.037000000
C    -0.888000000     0.170000000     0.283000000
H    -0.770000000    -0.103000000     1.328000000
C    -2.155000000     0.554000000    -0.278000000
H    -3.001000000     0.408000000     0.388000000
C    -2.229000000     1.071000000    -1.568000000
C    -3.499000000     1.554000000    -2.090000000
O    -4.553000000     1.123000000    -1.641000000
O    -3.517000000     2.102000000    -3.152000000
