14
-81.16719
C    -1.536000000     1.173000000    -2.411000000
H    -1.283000000     1.578000000    -3.388000000
C    -0.563000000     0.769000000    -1.526000000
H     0.479000000     0.838000000    -1.826000000
C    -0.935000000     0.259000000    -0.306000000
H    -0.143000000    -0.124000000     0.394000000
C    -2.293000000     0.025000000     0.044000000
H    -2.516000000    -0.354000000     1.039000000
C    -3.274000000     0.482000000    -0.806000000
H    -4.336000000     0.376000000    -0.601000000
C    -2.910000000     0.897000000    -2.064000000
C    -3.956000000     1.266000000    -3.077000000
O    -5.131000000     1.272000000    -2.814000000
O    -3.653000000     1.482000000    -4.206000000
