14
-78.24253
C    -0.919000000     0.994000000    -1.737000000
H    -0.733000000     1.501000000    -2.680000000
C     0.193000000     0.451000000    -1.069000000
H     1.142000000     0.702000000    -1.536000000
C     0.001000000    -0.269000000     0.116000000
H     0.787000000    -0.688000000     0.632000000
C    -1.260000000    -0.475000000     0.561000000
H    -1.481000000    -0.948000000     1.515000000
C    -2.367000000     0.022000000    -0.163000000
H    -3.397000000    -0.123000000     0.151000000
C    -2.219000000     0.775000000    -1.314000000
C    -3.464000000     1.082000000    -2.218000000
O    -4.582000000     0.741000000    -1.991000000
O    -3.263000000     1.732000000    -3.176000000
