14
-87.59046
C    -1.227000000     1.138000000    -1.828000000
H    -1.281000000     1.858000000    -2.641000000
C    -0.031000000     0.700000000    -1.293000000
H     0.847000000     1.112000000    -1.785000000
C    -0.002000000    -0.190000000    -0.231000000
H     0.955000000    -0.646000000     0.123000000
C    -1.209000000    -0.636000000     0.339000000
H    -1.116000000    -1.512000000     0.976000000
C    -2.430000000    -0.191000000    -0.203000000
H    -3.385000000    -0.614000000     0.097000000
C    -2.395000000     0.740000000    -1.267000000
C    -3.724000000     1.114000000    -1.882000000
O    -4.749000000     0.605000000    -1.478000000
O    -3.804000000     1.958000000    -2.761000000
