14
-91.24141
C    -1.477000000     1.283000000    -1.730000000
H    -1.453000000     1.934000000    -2.600000000
C    -0.333000000     0.685000000    -1.265000000
H     0.626000000     0.938000000    -1.709000000
C    -0.353000000    -0.142000000    -0.181000000
H     0.575000000    -0.569000000     0.216000000
C    -1.541000000    -0.379000000     0.526000000
H    -1.515000000    -0.820000000     1.519000000
C    -2.676000000     0.258000000     0.109000000
H    -3.623000000     0.007000000     0.580000000
C    -2.706000000     1.088000000    -1.026000000
C    -4.050000000     1.683000000    -1.475000000
O    -5.088000000     1.114000000    -1.135000000
O    -4.105000000     2.710000000    -2.167000000
