14
-88.65939
C    -1.451000000     1.125000000    -1.412000000
H    -1.597000000     1.916000000    -2.143000000
C    -0.165000000     0.756000000    -1.026000000
H     0.778000000     1.021000000    -1.498000000
C    -0.124000000    -0.095000000     0.082000000
H     0.828000000    -0.345000000     0.485000000
C    -1.264000000    -0.517000000     0.694000000
H    -1.166000000    -1.209000000     1.527000000
C    -2.520000000    -0.219000000     0.232000000
H    -3.376000000    -0.615000000     0.772000000
C    -2.642000000     0.675000000    -0.873000000
C    -3.998000000     1.092000000    -1.374000000
O    -4.924000000     0.309000000    -1.335000000
O    -4.071000000     2.154000000    -2.003000000
