14
-83.45528
C    -1.430000000     0.006000000     0.430000000
H    -1.952000000    -0.917000000     0.670000000
C    -0.145000000    -0.067000000    -0.092000000
H     0.366000000    -1.012000000    -0.257000000
C     0.492000000     1.086000000    -0.529000000
H     1.402000000     0.957000000    -1.117000000
C    -0.031000000     2.345000000    -0.286000000
H     0.474000000     3.268000000    -0.559000000
C    -1.233000000     2.388000000     0.402000000
H    -1.559000000     3.402000000     0.617000000
C    -1.966000000     1.281000000     0.771000000
C    -3.289000000     1.268000000     1.608000000
O    -3.897000000     2.258000000     1.895000000
O    -3.686000000     0.233000000     2.079000000
