14
-88.30827
C    -0.991000000     1.648000000    -1.848000000
H    -0.714000000     2.468000000    -2.506000000
C    -0.050000000     1.313000000    -0.852000000
H     0.931000000     1.781000000    -0.876000000
C    -0.355000000     0.375000000     0.107000000
H     0.253000000     0.158000000     0.956000000
C    -1.591000000    -0.287000000     0.090000000
H    -1.846000000    -1.017000000     0.854000000
C    -2.479000000     0.072000000    -0.920000000
H    -3.481000000    -0.347000000    -0.965000000
C    -2.188000000     1.008000000    -1.915000000
C    -3.132000000     1.175000000    -3.103000000
O    -4.342000000     1.053000000    -3.006000000
O    -2.662000000     1.751000000    -4.071000000
