14
-90.58146
C    -0.768000000     1.197000000    -1.567000000
H    -0.528000000     1.828000000    -2.420000000
C     0.280000000     0.490000000    -0.925000000
H     1.303000000     0.607000000    -1.274000000
C     0.010000000    -0.366000000     0.150000000
H     0.783000000    -0.963000000     0.627000000
C    -1.261000000    -0.522000000     0.545000000
H    -1.468000000    -1.082000000     1.454000000
C    -2.348000000     0.121000000    -0.143000000
H    -3.338000000    -0.124000000     0.233000000
C    -2.101000000     0.946000000    -1.255000000
C    -3.179000000     1.578000000    -2.146000000
O    -4.310000000     1.751000000    -1.743000000
O    -2.866000000     1.910000000    -3.299000000
