14
-80.49008
C    -1.646000000     1.117000000    -1.725000000
H    -1.733000000     1.776000000    -2.586000000
C    -0.355000000     1.008000000    -1.291000000
H     0.389000000     1.651000000    -1.754000000
C    -0.098000000     0.061000000    -0.232000000
H     0.917000000     0.177000000     0.264000000
C    -1.115000000    -0.657000000     0.345000000
H    -0.956000000    -1.167000000     1.292000000
C    -2.428000000    -0.504000000    -0.167000000
H    -3.232000000    -1.095000000     0.267000000
C    -2.697000000     0.322000000    -1.327000000
C    -4.021000000     0.408000000    -1.928000000
O    -4.820000000    -0.463000000    -1.748000000
O    -4.284000000     1.487000000    -2.451000000
