14
-90.40188
C    -1.497000000     0.885000000    -1.177000000
H    -2.399000000     1.400000000    -1.499000000
C    -1.079000000     0.962000000     0.167000000
H    -1.640000000     1.534000000     0.902000000
C    -0.001000000     0.243000000     0.591000000
H     0.338000000     0.366000000     1.592000000
C     0.816000000    -0.505000000    -0.357000000
H     1.624000000    -1.122000000     0.029000000
C     0.433000000    -0.438000000    -1.712000000
H     1.053000000    -1.053000000    -2.359000000
C    -0.730000000     0.255000000    -2.142000000
C    -1.081000000     0.317000000    -3.635000000
O    -0.342000000    -0.234000000    -4.426000000
O    -1.986000000     1.051000000    -3.954000000
