14
-80.35646
C    -1.852000000     0.461000000    -1.371000000
H    -2.908000000     0.647000000    -1.549000000
C    -1.341000000     0.716000000    -0.083000000
H    -1.889000000     1.299000000     0.653000000
C    -0.035000000     0.262000000     0.206000000
H     0.300000000     0.387000000     1.194000000
C     0.654000000    -0.519000000    -0.770000000
H     1.528000000    -1.150000000    -0.627000000
C     0.159000000    -0.673000000    -2.026000000
H     0.718000000    -1.296000000    -2.718000000
C    -1.108000000    -0.271000000    -2.324000000
C    -1.727000000    -0.616000000    -3.684000000
O    -1.239000000    -1.506000000    -4.324000000
O    -2.538000000     0.095000000    -4.228000000
