14
-87.95392
C    -1.514000000     0.196000000     1.198000000
H    -2.042000000    -0.338000000     1.984000000
C    -0.444000000    -0.414000000     0.535000000
H    -0.244000000    -1.469000000     0.706000000
C     0.264000000     0.354000000    -0.392000000
H     1.061000000    -0.131000000    -0.989000000
C    -0.058000000     1.684000000    -0.572000000
H     0.589000000     2.326000000    -1.164000000
C    -1.091000000     2.271000000     0.147000000
H    -1.116000000     3.345000000    -0.022000000
C    -1.780000000     1.592000000     1.107000000
C    -2.942000000     2.230000000     1.881000000
O    -3.033000000     3.426000000     1.770000000
O    -3.704000000     1.611000000     2.657000000
