14
-81.56200
C    -1.403000000     0.361000000     0.066000000
H    -2.317000000     0.897000000     0.312000000
C    -0.223000000     0.334000000     0.857000000
H    -0.275000000     0.912000000     1.776000000
C     0.947000000    -0.177000000     0.364000000
H     1.855000000    -0.180000000     1.009000000
C     0.980000000    -0.726000000    -0.879000000
H     1.871000000    -1.274000000    -1.175000000
C    -0.069000000    -0.707000000    -1.740000000
H    -0.038000000    -1.099000000    -2.754000000
C    -1.305000000    -0.220000000    -1.243000000
C    -2.469000000    -0.071000000    -2.152000000
O    -2.530000000    -0.672000000    -3.184000000
O    -3.483000000     0.495000000    -1.764000000
