14
-87.63525
C    -1.890000000    -0.571000000    -0.134000000
H    -2.934000000    -0.444000000     0.140000000
C    -0.770000000    -0.002000000     0.497000000
H    -0.856000000     0.559000000     1.424000000
C     0.459000000    -0.073000000    -0.028000000
H     1.334000000     0.510000000     0.385000000
C     0.646000000    -0.818000000    -1.181000000
H     1.637000000    -0.740000000    -1.621000000
C    -0.442000000    -1.348000000    -1.857000000
H    -0.399000000    -1.758000000    -2.863000000
C    -1.724000000    -1.169000000    -1.340000000
C    -2.915000000    -1.743000000    -2.028000000
O    -2.713000000    -2.451000000    -3.021000000
O    -4.034000000    -1.414000000    -1.647000000
