14
-84.91658
C    -1.576000000    -0.427000000    -0.129000000
H    -2.541000000    -0.256000000     0.342000000
C    -0.398000000     0.051000000     0.425000000
H    -0.425000000     0.669000000     1.318000000
C     0.819000000    -0.036000000    -0.280000000
H     1.651000000     0.536000000     0.125000000
C     0.957000000    -0.809000000    -1.438000000
H     1.905000000    -1.005000000    -1.933000000
C    -0.178000000    -1.297000000    -2.006000000
H    -0.113000000    -1.918000000    -2.896000000
C    -1.454000000    -1.088000000    -1.346000000
C    -2.723000000    -1.604000000    -2.125000000
O    -2.590000000    -2.258000000    -3.111000000
O    -3.828000000    -1.425000000    -1.674000000
