14
-86.55167
C    -1.785000000    -0.980000000    -0.227000000
H    -2.802000000    -1.122000000     0.130000000
C    -0.865000000    -0.170000000     0.434000000
H    -1.230000000     0.413000000     1.276000000
C     0.438000000    -0.057000000    -0.118000000
H     1.161000000     0.638000000     0.276000000
C     0.762000000    -0.811000000    -1.264000000
H     1.770000000    -0.784000000    -1.669000000
C    -0.271000000    -1.563000000    -1.958000000
H    -0.021000000    -2.084000000    -2.878000000
C    -1.473000000    -1.726000000    -1.397000000
C    -2.604000000    -2.369000000    -2.123000000
O    -2.474000000    -2.566000000    -3.306000000
O    -3.572000000    -2.806000000    -1.522000000
