14
-90.45026
C    -2.289000000    -1.287000000    -0.907000000
H    -3.192000000    -1.606000000    -0.393000000
C    -1.467000000    -0.304000000    -0.340000000
H    -1.716000000     0.172000000     0.605000000
C    -0.160000000    -0.045000000    -0.779000000
H     0.551000000     0.590000000    -0.224000000
C     0.319000000    -0.793000000    -1.876000000
H     1.315000000    -0.593000000    -2.264000000
C    -0.553000000    -1.631000000    -2.562000000
H    -0.135000000    -2.067000000    -3.466000000
C    -1.868000000    -1.901000000    -2.085000000
C    -2.784000000    -2.842000000    -2.852000000
O    -2.543000000    -3.093000000    -4.020000000
O    -3.861000000    -3.122000000    -2.337000000
