14
-88.90078
C    -2.750000000    -1.405000000    -0.015000000
H    -3.772000000    -1.510000000     0.340000000
C    -1.852000000    -0.483000000     0.650000000
H    -2.197000000     0.086000000     1.510000000
C    -0.558000000    -0.452000000     0.217000000
H     0.184000000     0.196000000     0.658000000
C    -0.188000000    -1.038000000    -1.053000000
H     0.813000000    -0.910000000    -1.456000000
C    -1.057000000    -1.877000000    -1.682000000
H    -0.641000000    -2.437000000    -2.515000000
C    -2.354000000    -2.098000000    -1.119000000
C    -3.335000000    -3.013000000    -1.772000000
O    -2.929000000    -3.860000000    -2.569000000
O    -4.566000000    -2.913000000    -1.586000000
