14
-86.28017
C    -3.351000000    -0.786000000    -0.093000000
H    -4.310000000    -0.487000000     0.322000000
C    -2.223000000     0.018000000     0.080000000
H    -2.270000000     0.980000000     0.583000000
C    -0.974000000    -0.377000000    -0.423000000
H    -0.155000000     0.236000000    -0.051000000
C    -0.832000000    -1.593000000    -1.181000000
H     0.145000000    -1.872000000    -1.565000000
C    -1.991000000    -2.366000000    -1.328000000
H    -1.945000000    -3.313000000    -1.861000000
C    -3.226000000    -2.046000000    -0.770000000
C    -4.403000000    -2.877000000    -1.094000000
O    -4.285000000    -3.946000000    -1.722000000
O    -5.533000000    -2.380000000    -1.073000000
