14
-85.78932
C    -2.379000000    -0.421000000    -0.451000000
H    -3.343000000    -0.259000000     0.022000000
C    -1.258000000     0.058000000     0.157000000
H    -1.321000000     0.789000000     0.959000000
C     0.008000000    -0.353000000    -0.213000000
H     0.864000000    -0.058000000     0.314000000
C     0.201000000    -1.170000000    -1.282000000
H     1.231000000    -1.401000000    -1.541000000
C    -0.876000000    -1.599000000    -1.956000000
H    -0.748000000    -2.185000000    -2.862000000
C    -2.203000000    -1.214000000    -1.621000000
C    -3.417000000    -1.747000000    -2.287000000
O    -3.278000000    -2.702000000    -3.075000000
O    -4.533000000    -1.254000000    -2.133000000
