14
-81.13910
C    -2.854000000    -0.670000000    -0.954000000
H    -3.916000000    -0.477000000    -0.827000000
C    -1.962000000    -0.035000000    -0.113000000
H    -2.283000000     0.664000000     0.655000000
C    -0.558000000    -0.163000000    -0.379000000
H     0.143000000     0.539000000     0.153000000
C    -0.088000000    -1.211000000    -1.182000000
H     0.927000000    -1.319000000    -1.554000000
C    -1.044000000    -1.879000000    -1.927000000
H    -0.690000000    -2.585000000    -2.675000000
C    -2.382000000    -1.600000000    -1.862000000
C    -3.297000000    -2.268000000    -2.908000000
O    -2.938000000    -3.103000000    -3.729000000
O    -4.443000000    -1.946000000    -2.924000000
