14
-83.01872
C    -2.365000000    -0.679000000    -0.818000000
H    -3.412000000    -0.432000000    -0.664000000
C    -1.371000000     0.158000000    -0.268000000
H    -1.718000000     0.952000000     0.389000000
C     0.010000000    -0.072000000    -0.334000000
H     0.696000000     0.708000000    -0.037000000
C     0.363000000    -1.192000000    -1.121000000
H     1.432000000    -1.327000000    -1.266000000
C    -0.574000000    -2.030000000    -1.719000000
H    -0.228000000    -2.849000000    -2.344000000
C    -1.950000000    -1.776000000    -1.583000000
C    -2.996000000    -2.354000000    -2.505000000
O    -2.737000000    -2.924000000    -3.524000000
O    -4.174000000    -2.229000000    -2.223000000
