14
-76.78113
C    -2.916000000     0.199000000     0.249000000
H    -3.580000000     0.600000000     1.010000000
C    -1.559000000     0.629000000     0.322000000
H    -1.206000000     1.409000000     0.992000000
C    -0.683000000     0.306000000    -0.696000000
H     0.264000000     0.881000000    -0.730000000
C    -1.036000000    -0.659000000    -1.627000000
H    -0.251000000    -0.899000000    -2.339000000
C    -2.320000000    -1.237000000    -1.539000000
H    -2.564000000    -2.061000000    -2.205000000
C    -3.329000000    -0.707000000    -0.770000000
C    -4.690000000    -1.220000000    -0.904000000
O    -4.914000000    -1.996000000    -1.805000000
O    -5.581000000    -0.600000000    -0.410000000
