14
-84.52052
C    -1.833000000    -0.353000000     2.478000000
H    -1.869000000    -0.669000000     3.518000000
C    -0.812000000    -0.943000000     1.690000000
H    -0.272000000    -1.795000000     2.096000000
C    -0.662000000    -0.585000000     0.380000000
H     0.055000000    -0.995000000    -0.293000000
C    -1.488000000     0.387000000    -0.152000000
H    -1.384000000     0.646000000    -1.202000000
C    -2.522000000     0.964000000     0.611000000
H    -3.233000000     1.667000000     0.183000000
C    -2.693000000     0.631000000     1.970000000
C    -3.827000000     1.079000000     2.777000000
O    -4.698000000     1.740000000     2.231000000
O    -3.940000000     0.830000000     3.928000000
