14
-88.67606
C    -2.223000000     0.985000000     0.400000000
H    -2.950000000     1.660000000     0.844000000
C    -0.855000000     1.210000000     0.665000000
H    -0.573000000     1.986000000     1.372000000
C     0.063000000     0.430000000     0.017000000
H     1.161000000     0.655000000     0.237000000
C    -0.334000000    -0.559000000    -0.837000000
H     0.372000000    -1.099000000    -1.463000000
C    -1.718000000    -0.841000000    -1.041000000
H    -2.082000000    -1.605000000    -1.724000000
C    -2.694000000    -0.087000000    -0.411000000
C    -4.132000000    -0.345000000    -0.663000000
O    -4.472000000    -1.424000000    -1.053000000
O    -4.964000000     0.544000000    -0.465000000
