14
-87.19459
C    -1.895000000     1.126000000     0.675000000
H    -2.270000000     2.076000000     1.048000000
C    -0.520000000     0.828000000     0.645000000
H     0.179000000     1.466000000     1.180000000
C    -0.031000000    -0.174000000    -0.149000000
H     1.028000000    -0.347000000    -0.210000000
C    -0.969000000    -0.996000000    -0.793000000
H    -0.618000000    -1.746000000    -1.498000000
C    -2.324000000    -0.792000000    -0.661000000
H    -2.886000000    -1.535000000    -1.221000000
C    -2.813000000     0.297000000     0.016000000
C    -4.242000000     0.709000000    -0.078000000
O    -4.939000000     0.113000000    -0.880000000
O    -4.594000000     1.747000000     0.435000000
