14
-89.45838
C    -1.854000000     1.277000000     0.522000000
H    -2.344000000     2.137000000     0.970000000
C    -0.553000000     0.796000000     0.810000000
H     0.059000000     1.355000000     1.513000000
C     0.068000000    -0.286000000     0.176000000
H     1.017000000    -0.596000000     0.510000000
C    -0.614000000    -0.993000000    -0.725000000
H    -0.116000000    -1.838000000    -1.195000000
C    -1.894000000    -0.597000000    -1.078000000
H    -2.347000000    -1.138000000    -1.905000000
C    -2.524000000     0.522000000    -0.426000000
C    -3.910000000     0.971000000    -0.892000000
O    -4.401000000     0.263000000    -1.816000000
O    -4.487000000     1.980000000    -0.424000000
