14
-89.59318
C    -2.308000000     0.734000000     0.798000000
H    -2.940000000     1.410000000     1.368000000
C    -0.886000000     0.899000000     0.898000000
H    -0.543000000     1.625000000     1.631000000
C    -0.019000000     0.073000000     0.124000000
H     1.117000000     0.288000000     0.171000000
C    -0.536000000    -0.825000000    -0.803000000
H     0.046000000    -1.453000000    -1.472000000
C    -1.870000000    -0.978000000    -0.860000000
H    -2.336000000    -1.695000000    -1.531000000
C    -2.765000000    -0.214000000    -0.039000000
C    -4.227000000    -0.323000000    -0.372000000
O    -4.584000000    -1.050000000    -1.314000000
O    -5.020000000     0.344000000     0.314000000
