14
-82.83206
C    -2.312000000     1.070000000     0.345000000
H    -3.039000000     1.832000000     0.613000000
C    -1.016000000     1.302000000     0.799000000
H    -0.793000000     2.176000000     1.405000000
C    -0.080000000     0.332000000     0.484000000
H     1.025000000     0.418000000     0.794000000
C    -0.432000000    -0.694000000    -0.386000000
H     0.457000000    -1.180000000    -0.778000000
C    -1.702000000    -0.840000000    -0.955000000
H    -1.854000000    -1.536000000    -1.776000000
C    -2.631000000     0.122000000    -0.632000000
C    -3.973000000     0.171000000    -1.344000000
O    -3.998000000    -0.296000000    -2.479000000
O    -4.846000000     0.903000000    -0.957000000
