14
-82.44154
C    -2.130000000     1.239000000     0.057000000
H    -2.877000000     1.966000000     0.365000000
C    -1.007000000     0.995000000     0.929000000
H    -0.851000000     1.459000000     1.899000000
C     0.032000000     0.162000000     0.520000000
H     0.801000000     0.141000000     1.267000000
C     0.016000000    -0.401000000    -0.733000000
H     0.774000000    -1.109000000    -1.060000000
C    -0.991000000    -0.156000000    -1.659000000
H    -1.019000000    -0.661000000    -2.621000000
C    -2.135000000     0.674000000    -1.278000000
C    -3.123000000     1.033000000    -2.386000000
O    -2.818000000     0.889000000    -3.541000000
O    -4.118000000     1.681000000    -2.079000000
