14
-84.83120
C    -2.640000000    -0.491000000     2.445000000
H    -3.130000000    -0.915000000     3.318000000
C    -1.464000000    -1.076000000     1.994000000
H    -1.038000000    -1.944000000     2.491000000
C    -0.764000000    -0.509000000     0.943000000
H     0.089000000    -0.926000000     0.737000000
C    -1.293000000     0.568000000     0.309000000
H    -0.696000000     1.041000000    -0.467000000
C    -2.540000000     1.019000000     0.648000000
H    -2.972000000     1.775000000    -0.002000000
C    -3.258000000     0.472000000     1.706000000
C    -4.585000000     1.124000000     2.140000000
O    -5.132000000     2.022000000     1.494000000
O    -5.213000000     0.505000000     3.045000000
