14
-83.21268
C    -2.516000000    -0.050000000    -0.758000000
H    -3.594000000    -0.073000000    -0.619000000
C    -1.678000000    -0.558000000     0.192000000
H    -1.954000000    -0.852000000     1.201000000
C    -0.311000000    -0.465000000    -0.024000000
H     0.442000000    -0.852000000     0.743000000
C     0.191000000    -0.100000000    -1.227000000
H     1.269000000    -0.057000000    -1.360000000
C    -0.656000000     0.279000000    -2.278000000
H    -0.287000000     0.538000000    -3.267000000
C    -2.045000000     0.225000000    -2.104000000
C    -2.984000000     0.784000000    -3.063000000
O    -2.635000000     1.340000000    -4.096000000
O    -4.190000000     0.850000000    -2.770000000
