14
-89.76890
C    -2.152000000    -0.012000000    -0.421000000
H    -3.205000000    -0.268000000    -0.337000000
C    -1.272000000    -0.329000000     0.589000000
H    -1.684000000    -0.890000000     1.425000000
C     0.087000000     0.002000000     0.426000000
H     0.741000000    -0.383000000     1.154000000
C     0.479000000     0.703000000    -0.725000000
H     1.525000000     0.971000000    -0.855000000
C    -0.371000000     0.982000000    -1.754000000
H     0.021000000     1.443000000    -2.658000000
C    -1.725000000     0.604000000    -1.620000000
C    -2.692000000     0.962000000    -2.745000000
O    -2.267000000     1.098000000    -3.905000000
O    -3.768000000     1.434000000    -2.424000000
