14
-89.02260
C    -1.726000000    -0.155000000    -0.390000000
H    -2.612000000    -0.702000000    -0.077000000
C    -0.480000000    -0.261000000     0.269000000
H    -0.408000000    -1.063000000     0.999000000
C     0.542000000     0.523000000    -0.132000000
H     1.548000000     0.355000000     0.320000000
C     0.391000000     1.519000000    -1.125000000
H     1.275000000     2.092000000    -1.391000000
C    -0.848000000     1.704000000    -1.791000000
H    -0.966000000     2.385000000    -2.630000000
C    -1.870000000     0.753000000    -1.425000000
C    -3.181000000     1.038000000    -2.056000000
O    -3.205000000     1.350000000    -3.228000000
O    -4.220000000     0.857000000    -1.391000000
