14
-89.96865
C    -2.301000000     0.123000000    -0.779000000
H    -3.327000000    -0.235000000    -0.813000000
C    -1.272000000    -0.250000000     0.070000000
H    -1.438000000    -0.761000000     1.015000000
C     0.004000000     0.237000000    -0.120000000
H     0.754000000     0.051000000     0.644000000
C     0.347000000     0.945000000    -1.251000000
H     1.360000000     1.326000000    -1.353000000
C    -0.689000000     1.270000000    -2.157000000
H    -0.405000000     1.931000000    -2.971000000
C    -2.030000000     0.942000000    -1.902000000
C    -3.131000000     1.612000000    -2.728000000
O    -2.801000000     2.208000000    -3.733000000
O    -4.306000000     1.635000000    -2.323000000
