14
-86.97343
C    -2.300000000    -0.178000000    -0.324000000
H    -3.262000000    -0.517000000     0.053000000
C    -1.115000000    -0.396000000     0.452000000
H    -1.178000000    -0.899000000     1.414000000
C     0.114000000     0.060000000     0.015000000
H     0.994000000    -0.246000000     0.582000000
C     0.241000000     0.715000000    -1.181000000
H     1.214000000     1.098000000    -1.480000000
C    -0.873000000     1.025000000    -1.953000000
H    -0.718000000     1.481000000    -2.928000000
C    -2.108000000     0.476000000    -1.542000000
C    -3.260000000     0.654000000    -2.476000000
O    -3.116000000     1.148000000    -3.556000000
O    -4.387000000     0.537000000    -1.985000000
