14
-89.39772
C    -2.204000000    -0.590000000    -0.446000000
H    -3.118000000    -1.027000000    -0.052000000
C    -1.013000000    -0.516000000     0.300000000
H    -0.937000000    -0.951000000     1.294000000
C     0.090000000     0.170000000    -0.149000000
H     1.036000000     0.163000000     0.436000000
C    -0.023000000     0.906000000    -1.364000000
H     0.790000000     1.486000000    -1.794000000
C    -1.229000000     0.902000000    -2.086000000
H    -1.297000000     1.463000000    -3.014000000
C    -2.287000000     0.121000000    -1.671000000
C    -3.566000000     0.213000000    -2.375000000
O    -3.565000000     0.941000000    -3.351000000
O    -4.589000000    -0.226000000    -1.869000000
