14
-83.91790
C    -2.576000000    -0.360000000    -0.541000000
H    -3.414000000    -0.848000000    -0.049000000
C    -1.317000000    -0.420000000    -0.025000000
H    -1.131000000    -1.037000000     0.851000000
C    -0.190000000     0.234000000    -0.519000000
H     0.835000000     0.046000000    -0.141000000
C    -0.453000000     1.087000000    -1.657000000
H     0.368000000     1.624000000    -2.125000000
C    -1.746000000     1.064000000    -2.226000000
H    -1.901000000     1.729000000    -3.072000000
C    -2.785000000     0.387000000    -1.665000000
C    -4.142000000     0.440000000    -2.210000000
O    -4.356000000     0.923000000    -3.287000000
O    -5.071000000     0.059000000    -1.504000000
