14
-91.25380
C    -2.815000000    -0.358000000    -1.137000000
H    -3.848000000    -0.682000000    -1.238000000
C    -2.072000000    -0.844000000    -0.046000000
H    -2.524000000    -1.569000000     0.627000000
C    -0.790000000    -0.356000000     0.186000000
H    -0.144000000    -0.700000000     1.005000000
C    -0.218000000     0.497000000    -0.747000000
H     0.805000000     0.864000000    -0.715000000
C    -0.914000000     1.010000000    -1.822000000
H    -0.543000000     1.752000000    -2.523000000
C    -2.279000000     0.648000000    -1.952000000
C    -3.113000000     1.294000000    -3.115000000
O    -2.554000000     2.168000000    -3.720000000
O    -4.188000000     0.832000000    -3.362000000
