14
-75.15875
C    -2.577000000    -0.097000000    -2.010000000
H    -3.345000000    -0.752000000    -2.411000000
C    -1.717000000    -0.656000000    -1.074000000
H    -1.794000000    -1.713000000    -0.830000000
C    -0.774000000     0.187000000    -0.520000000
H    -0.072000000    -0.202000000     0.285000000
C    -0.673000000     1.512000000    -0.946000000
H     0.107000000     2.158000000    -0.552000000
C    -1.441000000     1.992000000    -2.007000000
H    -1.307000000     3.006000000    -2.375000000
C    -2.518000000     1.240000000    -2.497000000
C    -3.529000000     1.788000000    -3.447000000
O    -3.420000000     2.861000000    -3.903000000
O    -4.494000000     1.188000000    -3.794000000
