14
-84.09278
C    -1.265000000     0.004000000    -1.269000000
H    -1.880000000    -0.750000000    -1.753000000
C    -0.310000000    -0.368000000    -0.331000000
H     0.001000000    -1.406000000    -0.237000000
C     0.418000000     0.543000000     0.412000000
H     1.259000000     0.236000000     0.986000000
C     0.228000000     1.901000000     0.188000000
H     0.767000000     2.681000000     0.721000000
C    -0.800000000     2.243000000    -0.720000000
H    -0.913000000     3.324000000    -0.736000000
C    -1.539000000     1.359000000    -1.480000000
C    -2.680000000     1.798000000    -2.309000000
O    -2.881000000     2.951000000    -2.581000000
O    -3.467000000     0.959000000    -2.686000000
