14
-89.80433
C    -2.480000000     0.401000000    -1.522000000
H    -3.276000000    -0.042000000    -2.116000000
C    -1.363000000    -0.363000000    -1.238000000
H    -1.347000000    -1.384000000    -1.608000000
C    -0.450000000     0.158000000    -0.331000000
H     0.379000000    -0.378000000     0.094000000
C    -0.518000000     1.463000000     0.230000000
H     0.222000000     1.862000000     0.919000000
C    -1.623000000     2.227000000    -0.188000000
H    -1.693000000     3.296000000    -0.005000000
C    -2.610000000     1.732000000    -1.078000000
C    -3.793000000     2.554000000    -1.400000000
O    -3.800000000     3.762000000    -1.073000000
O    -4.677000000     2.061000000    -2.069000000
