14
-88.30055
C    -2.553000000    -0.070000000    -1.124000000
H    -3.227000000    -0.797000000    -1.570000000
C    -1.273000000    -0.544000000    -0.897000000
H    -1.075000000    -1.575000000    -1.179000000
C    -0.399000000     0.202000000    -0.141000000
H     0.635000000    -0.098000000     0.009000000
C    -0.818000000     1.440000000     0.362000000
H    -0.095000000     2.095000000     0.842000000
C    -2.138000000     1.895000000     0.138000000
H    -2.406000000     2.856000000     0.570000000
C    -3.067000000     1.098000000    -0.566000000
C    -4.607000000     1.557000000    -0.669000000
O    -4.949000000     2.755000000    -0.385000000
O    -5.418000000     0.652000000    -0.746000000
