14
-84.38316
C    -1.894000000    -0.432000000    -1.842000000
H    -2.457000000    -1.267000000    -2.251000000
C    -1.063000000    -0.773000000    -0.812000000
H    -0.936000000    -1.832000000    -0.602000000
C    -0.375000000     0.265000000    -0.156000000
H     0.168000000     0.098000000     0.761000000
C    -0.574000000     1.578000000    -0.508000000
H     0.096000000     2.345000000    -0.129000000
C    -1.396000000     1.891000000    -1.526000000
H    -1.591000000     2.945000000    -1.705000000
C    -2.150000000     0.885000000    -2.169000000
C    -3.193000000     1.325000000    -3.129000000
O    -3.355000000     2.527000000    -3.290000000
O    -4.008000000     0.536000000    -3.587000000
