14
-92.15911
C    -3.058000000    -1.203000000    -1.528000000
H    -3.787000000    -1.896000000    -1.940000000
C    -2.115000000    -1.537000000    -0.568000000
H    -2.007000000    -2.594000000    -0.340000000
C    -1.195000000    -0.607000000    -0.066000000
H    -0.280000000    -0.876000000     0.564000000
C    -1.252000000     0.684000000    -0.567000000
H    -0.565000000     1.429000000    -0.176000000
C    -2.178000000     0.999000000    -1.523000000
H    -2.241000000     2.033000000    -1.855000000
C    -3.094000000     0.069000000    -2.056000000
C    -4.189000000     0.572000000    -3.021000000
O    -4.294000000     1.816000000    -3.226000000
O    -4.982000000    -0.235000000    -3.518000000
