14
-82.73667
C    -2.003000000    -0.804000000    -1.381000000
H    -2.706000000    -1.483000000    -1.857000000
C    -1.048000000    -1.345000000    -0.503000000
H    -1.172000000    -2.413000000    -0.337000000
C    -0.087000000    -0.516000000     0.000000000
H     0.664000000    -0.902000000     0.568000000
C    -0.141000000     0.848000000    -0.281000000
H     0.645000000     1.531000000     0.031000000
C    -1.149000000     1.321000000    -1.155000000
H    -1.132000000     2.378000000    -1.409000000
C    -2.074000000     0.484000000    -1.678000000
C    -3.213000000     0.971000000    -2.549000000
O    -3.208000000     2.148000000    -2.942000000
O    -4.253000000     0.329000000    -2.803000000
