14
-83.80987
C    -1.964000000    -0.782000000    -1.867000000
H    -2.492000000    -1.454000000    -2.539000000
C    -0.962000000    -1.335000000    -0.987000000
H    -0.742000000    -2.400000000    -0.980000000
C    -0.115000000    -0.478000000    -0.278000000
H     0.657000000    -0.917000000     0.401000000
C    -0.335000000     0.884000000    -0.275000000
H     0.331000000     1.576000000     0.234000000
C    -1.260000000     1.425000000    -1.112000000
H    -1.437000000     2.497000000    -1.073000000
C    -2.104000000     0.631000000    -1.871000000
C    -3.180000000     1.288000000    -2.733000000
O    -3.388000000     2.489000000    -2.580000000
O    -3.912000000     0.687000000    -3.440000000
