14
-88.68598
C    -2.287000000    -0.453000000    -1.808000000
H    -3.045000000    -0.952000000    -2.407000000
C    -1.221000000    -1.234000000    -1.322000000
H    -1.136000000    -2.300000000    -1.518000000
C    -0.288000000    -0.656000000    -0.482000000
H     0.495000000    -1.374000000    -0.035000000
C    -0.286000000     0.726000000    -0.163000000
H     0.516000000     1.176000000     0.417000000
C    -1.299000000     1.484000000    -0.780000000
H    -1.384000000     2.523000000    -0.470000000
C    -2.319000000     0.948000000    -1.576000000
C    -3.382000000     1.756000000    -2.234000000
O    -3.521000000     2.880000000    -1.741000000
O    -4.243000000     1.323000000    -3.058000000
