14
-91.15553
C    -1.525000000    -0.402000000    -1.479000000
H    -2.152000000    -1.051000000    -2.084000000
C    -0.603000000    -0.960000000    -0.582000000
H    -0.586000000    -2.045000000    -0.529000000
C     0.224000000    -0.182000000     0.281000000
H     0.971000000    -0.716000000     0.914000000
C     0.043000000     1.202000000     0.267000000
H     0.689000000     1.861000000     0.841000000
C    -1.007000000     1.720000000    -0.535000000
H    -1.287000000     2.764000000    -0.423000000
C    -1.790000000     0.937000000    -1.355000000
C    -3.008000000     1.463000000    -2.060000000
O    -3.424000000     2.609000000    -1.783000000
O    -3.547000000     0.752000000    -2.874000000
