14
-86.49802
C    -2.570000000    -0.956000000    -2.211000000
H    -3.159000000    -1.420000000    -2.998000000
C    -1.723000000    -1.568000000    -1.355000000
H    -1.763000000    -2.654000000    -1.355000000
C    -0.786000000    -0.798000000    -0.533000000
H    -0.201000000    -1.315000000     0.204000000
C    -0.781000000     0.563000000    -0.592000000
H    -0.139000000     1.193000000     0.018000000
C    -1.613000000     1.192000000    -1.554000000
H    -1.577000000     2.276000000    -1.633000000
C    -2.455000000     0.416000000    -2.362000000
C    -3.356000000     1.103000000    -3.357000000
O    -3.472000000     2.325000000    -3.311000000
O    -4.134000000     0.445000000    -4.024000000
