14
-88.16605
C    -2.641000000    -0.599000000    -1.084000000
H    -3.487000000    -1.203000000    -1.402000000
C    -1.418000000    -1.206000000    -0.806000000
H    -1.287000000    -2.284000000    -0.779000000
C    -0.299000000    -0.456000000    -0.457000000
H     0.674000000    -0.899000000    -0.151000000
C    -0.448000000     0.915000000    -0.413000000
H     0.358000000     1.547000000    -0.047000000
C    -1.699000000     1.490000000    -0.640000000
H    -1.724000000     2.575000000    -0.577000000
C    -2.818000000     0.735000000    -0.981000000
C    -4.069000000     1.457000000    -1.492000000
O    -3.962000000     2.657000000    -1.687000000
O    -5.118000000     0.905000000    -1.710000000
