14
-88.24479
C    -1.862000000    -0.908000000    -1.209000000
H    -2.451000000    -1.695000000    -1.674000000
C    -0.620000000    -1.137000000    -0.598000000
H    -0.255000000    -2.160000000    -0.565000000
C     0.084000000    -0.094000000     0.019000000
H     1.088000000    -0.243000000     0.422000000
C    -0.538000000     1.169000000     0.141000000
H    -0.056000000     1.883000000     0.805000000
C    -1.794000000     1.409000000    -0.467000000
H    -2.329000000     2.348000000    -0.353000000
C    -2.475000000     0.362000000    -1.160000000
C    -3.735000000     0.648000000    -1.935000000
O    -4.229000000     1.719000000    -1.909000000
O    -4.280000000    -0.252000000    -2.586000000
