14
-79.59667
C    -1.899000000    -0.665000000    -0.290000000
H    -2.511000000    -1.545000000    -0.474000000
C    -0.569000000    -0.894000000    -0.076000000
H    -0.232000000    -1.916000000    -0.229000000
C     0.243000000     0.167000000     0.232000000
H     1.253000000    -0.043000000     0.534000000
C    -0.306000000     1.443000000     0.275000000
H     0.292000000     2.326000000     0.484000000
C    -1.616000000     1.628000000     0.062000000
H    -2.004000000     2.644000000     0.049000000
C    -2.483000000     0.582000000    -0.207000000
C    -3.978000000     0.782000000    -0.348000000
O    -4.465000000     1.821000000    -0.035000000
O    -4.744000000    -0.114000000    -0.601000000
