14
-80.71740
C    -2.218000000    -0.503000000    -0.430000000
H    -3.146000000    -0.976000000    -0.739000000
C    -0.968000000    -1.039000000    -0.562000000
H    -0.907000000    -2.013000000    -1.040000000
C     0.220000000    -0.410000000    -0.082000000
H     1.148000000    -0.985000000    -0.107000000
C     0.042000000     0.820000000     0.519000000
H     0.996000000     1.170000000     0.904000000
C    -1.213000000     1.384000000     0.663000000
H    -1.321000000     2.381000000     1.082000000
C    -2.384000000     0.733000000     0.257000000
C    -3.696000000     1.398000000     0.261000000
O    -3.939000000     2.427000000     0.889000000
O    -4.590000000     1.091000000    -0.511000000
