14
-90.74491
C    -1.594000000    -0.825000000     0.101000000
H    -2.233000000    -1.677000000    -0.117000000
C    -0.223000000    -0.723000000    -0.251000000
H     0.325000000    -1.603000000    -0.579000000
C     0.566000000     0.420000000     0.061000000
H     1.655000000     0.498000000    -0.072000000
C    -0.132000000     1.518000000     0.656000000
H     0.457000000     2.403000000     0.883000000
C    -1.508000000     1.480000000     0.875000000
H    -1.953000000     2.433000000     1.150000000
C    -2.239000000     0.326000000     0.667000000
C    -3.747000000     0.314000000     0.874000000
O    -4.363000000     1.224000000     1.476000000
O    -4.369000000    -0.569000000     0.271000000
