14
-80.60774
C    -2.916000000     0.008000000    -0.424000000
H    -3.883000000    -0.400000000    -0.140000000
C    -1.948000000    -0.936000000    -0.606000000
H    -2.332000000    -1.947000000    -0.721000000
C    -0.637000000    -0.685000000    -0.767000000
H     0.141000000    -1.409000000    -0.784000000
C    -0.277000000     0.709000000    -0.721000000
H     0.779000000     0.958000000    -0.785000000
C    -1.236000000     1.721000000    -0.518000000
H    -0.967000000     2.774000000    -0.543000000
C    -2.591000000     1.374000000    -0.329000000
C    -3.762000000     2.338000000    -0.078000000
O    -3.635000000     3.445000000     0.405000000
O    -4.859000000     1.886000000    -0.188000000
