14
-89.67855
C    -2.320000000    -0.872000000     0.212000000
H    -3.184000000    -1.528000000     0.149000000
C    -1.133000000    -1.424000000    -0.216000000
H    -0.974000000    -2.395000000    -0.676000000
C    -0.001000000    -0.609000000    -0.187000000
H     0.967000000    -0.913000000    -0.494000000
C    -0.079000000     0.736000000     0.130000000
H     0.794000000     1.376000000     0.034000000
C    -1.325000000     1.274000000     0.467000000
H    -1.382000000     2.359000000     0.494000000
C    -2.423000000     0.455000000     0.625000000
C    -3.789000000     1.074000000     0.852000000
O    -3.925000000     2.283000000     0.777000000
O    -4.793000000     0.318000000     0.967000000
