14
-89.92144
C    -1.710000000     0.220000000     3.014000000
H    -2.267000000    -0.202000000     3.847000000
C    -1.455000000    -0.582000000     1.903000000
H    -1.864000000    -1.589000000     1.934000000
C    -0.721000000    -0.070000000     0.814000000
H    -0.312000000    -0.714000000     0.040000000
C    -0.366000000     1.283000000     0.856000000
H     0.191000000     1.676000000     0.010000000
C    -0.572000000     2.081000000     1.995000000
H    -0.292000000     3.131000000     1.984000000
C    -1.244000000     1.566000000     3.071000000
C    -1.604000000     2.395000000     4.313000000
O    -1.519000000     3.592000000     4.191000000
O    -2.328000000     1.851000000     5.154000000
