14
-79.58639
C    -2.380000000    -0.321000000     0.881000000
H    -3.176000000    -1.059000000     0.934000000
C    -1.156000000    -0.707000000     0.317000000
H    -1.027000000    -1.719000000    -0.058000000
C    -0.140000000     0.272000000     0.230000000
H     0.841000000    -0.013000000    -0.016000000
C    -0.430000000     1.612000000     0.573000000
H     0.365000000     2.351000000     0.621000000
C    -1.687000000     2.054000000     1.145000000
H    -1.805000000     3.019000000     1.631000000
C    -2.654000000     1.023000000     1.253000000
C    -3.912000000     1.393000000     1.989000000
O    -4.248000000     2.553000000     2.220000000
O    -4.847000000     0.585000000     2.016000000
