14
-78.16989
C    -2.363000000    -0.381000000     1.404000000
H    -3.261000000    -0.916000000     1.701000000
C    -1.615000000    -0.927000000     0.422000000
H    -1.878000000    -1.875000000    -0.040000000
C    -0.385000000    -0.358000000     0.105000000
H     0.309000000    -0.938000000    -0.499000000
C    -0.031000000     0.866000000     0.676000000
H     0.898000000     1.302000000     0.320000000
C    -0.852000000     1.444000000     1.650000000
H    -0.579000000     2.378000000     2.136000000
C    -2.128000000     0.803000000     1.999000000
C    -3.177000000     1.457000000     2.877000000
O    -2.961000000     2.515000000     3.369000000
O    -4.227000000     0.923000000     3.198000000
