14
-82.07734
C    -3.166000000    -0.547000000     0.746000000
H    -4.147000000    -0.944000000     0.497000000
C    -2.153000000    -1.065000000    -0.044000000
H    -2.316000000    -1.896000000    -0.725000000
C    -0.861000000    -0.487000000     0.003000000
H    -0.076000000    -0.886000000    -0.724000000
C    -0.679000000     0.665000000     0.827000000
H     0.298000000     1.141000000     0.851000000
C    -1.653000000     1.018000000     1.767000000
H    -1.417000000     1.820000000     2.462000000
C    -2.941000000     0.461000000     1.704000000
C    -4.080000000     0.945000000     2.601000000
O    -4.145000000     2.137000000     2.947000000
O    -5.089000000     0.303000000     2.530000000
