14
-85.96579
C    -2.258000000    -0.948000000     0.862000000
H    -3.090000000    -1.645000000     0.800000000
C    -1.245000000    -0.863000000    -0.117000000
H    -1.264000000    -1.513000000    -0.988000000
C    -0.285000000     0.127000000    -0.102000000
H     0.451000000     0.157000000    -0.896000000
C    -0.358000000     1.075000000     0.873000000
H     0.258000000     1.968000000     0.813000000
C    -1.373000000     1.035000000     1.812000000
H    -1.391000000     1.807000000     2.577000000
C    -2.353000000     0.019000000     1.827000000
C    -3.534000000     0.092000000     2.719000000
O    -3.694000000     1.066000000     3.401000000
O    -4.433000000    -0.745000000     2.678000000
