14
-72.71041
C    -2.120000000    -0.899000000     0.801000000
H    -2.985000000    -1.551000000     0.706000000
C    -1.118000000    -1.094000000    -0.073000000
H    -1.213000000    -1.901000000    -0.794000000
C     0.038000000    -0.285000000    -0.142000000
H     0.830000000    -0.434000000    -0.882000000
C     0.057000000     0.799000000     0.669000000
H     0.923000000     1.456000000     0.631000000
C    -0.993000000     0.991000000     1.618000000
H    -0.964000000     1.856000000     2.276000000
C    -2.066000000     0.125000000     1.731000000
C    -3.166000000     0.456000000     2.686000000
O    -3.253000000     1.609000000     2.947000000
O    -4.081000000    -0.259000000     2.795000000
