14
-86.09544
C    -2.127000000    -1.134000000     0.564000000
H    -2.904000000    -1.895000000     0.563000000
C    -1.049000000    -1.186000000    -0.306000000
H    -0.902000000    -2.027000000    -0.979000000
C    -0.111000000    -0.155000000    -0.336000000
H     0.604000000    -0.222000000    -1.174000000
C     0.027000000     0.720000000     0.681000000
H     0.845000000     1.436000000     0.693000000
C    -0.972000000     0.733000000     1.686000000
H    -0.750000000     1.305000000     2.583000000
C    -2.081000000    -0.179000000     1.641000000
C    -3.061000000    -0.276000000     2.768000000
O    -2.963000000     0.488000000     3.721000000
O    -4.087000000    -1.012000000     2.696000000
