14
-83.65625
C    -1.463000000     0.862000000     2.061000000
H    -2.010000000     0.507000000     2.931000000
C    -0.612000000    -0.092000000     1.468000000
H    -0.583000000    -1.084000000     1.912000000
C     0.162000000     0.213000000     0.386000000
H     0.939000000    -0.437000000     0.048000000
C     0.120000000     1.520000000    -0.151000000
H     0.716000000     1.599000000    -1.056000000
C    -0.785000000     2.511000000     0.383000000
H    -1.129000000     3.428000000    -0.090000000
C    -1.560000000     2.143000000     1.489000000
C    -2.494000000     3.168000000     2.192000000
O    -2.886000000     4.138000000     1.496000000
O    -3.007000000     2.959000000     3.244000000
