14
-86.22971
C    -1.164000000    -1.198000000     0.226000000
H    -1.301000000    -2.197000000    -0.180000000
C    -0.070000000    -0.431000000    -0.247000000
H     0.613000000    -0.648000000    -1.064000000
C     0.201000000     0.769000000     0.366000000
H     1.140000000     1.275000000     0.126000000
C    -0.693000000     1.293000000     1.354000000
H    -0.452000000     2.280000000     1.740000000
C    -1.848000000     0.579000000     1.701000000
H    -2.446000000     0.960000000     2.526000000
C    -2.001000000    -0.697000000     1.220000000
C    -3.205000000    -1.543000000     1.652000000
O    -3.818000000    -1.223000000     2.668000000
O    -3.748000000    -2.241000000     0.817000000
