14
-92.39990
C    -0.844000000     0.605000000     1.874000000
H    -1.106000000     0.277000000     2.877000000
C    -0.233000000    -0.324000000     1.075000000
H     0.042000000    -1.312000000     1.434000000
C     0.092000000     0.017000000    -0.229000000
H     0.615000000    -0.782000000    -0.833000000
C    -0.267000000     1.255000000    -0.725000000
H    -0.088000000     1.553000000    -1.755000000
C    -0.978000000     2.154000000     0.065000000
H    -1.231000000     3.137000000    -0.323000000
C    -1.124000000     1.861000000     1.432000000
C    -1.742000000     2.944000000     2.338000000
O    -2.114000000     3.977000000     1.791000000
O    -1.946000000     2.710000000     3.531000000
