14
-81.41421
C    -0.982000000    -1.317000000     0.035000000
H    -1.311000000    -2.286000000    -0.331000000
C     0.239000000    -0.796000000    -0.355000000
H     0.950000000    -1.359000000    -0.953000000
C     0.638000000     0.394000000     0.130000000
H     1.647000000     0.677000000    -0.130000000
C    -0.260000000     1.185000000     0.909000000
H     0.189000000     2.092000000     1.305000000
C    -1.448000000     0.647000000     1.374000000
H    -2.131000000     1.232000000     1.986000000
C    -1.871000000    -0.602000000     0.919000000
C    -3.163000000    -1.271000000     1.406000000
O    -4.022000000    -0.536000000     1.791000000
O    -3.432000000    -2.416000000     1.150000000
