14
-87.10999
C    -1.609000000    -1.212000000     0.229000000
H    -1.936000000    -2.175000000    -0.154000000
C    -0.451000000    -0.586000000    -0.176000000
H     0.184000000    -1.009000000    -0.950000000
C     0.069000000     0.471000000     0.493000000
H     1.046000000     0.817000000     0.139000000
C    -0.605000000     1.099000000     1.518000000
H    -0.158000000     1.976000000     1.979000000
C    -1.779000000     0.524000000     1.914000000
H    -2.286000000     0.952000000     2.775000000
C    -2.287000000    -0.689000000     1.306000000
C    -3.664000000    -1.264000000     1.653000000
O    -4.225000000    -0.801000000     2.641000000
O    -4.267000000    -2.095000000     0.957000000
