14
-85.61444
C    -2.727000000    -1.171000000    -0.570000000
H    -3.347000000    -1.930000000    -1.039000000
C    -1.577000000    -0.745000000    -1.197000000
H    -1.356000000    -0.872000000    -2.254000000
C    -0.812000000     0.237000000    -0.554000000
H     0.135000000     0.656000000    -1.005000000
C    -1.079000000     0.679000000     0.756000000
H    -0.347000000     1.365000000     1.173000000
C    -2.266000000     0.295000000     1.350000000
H    -2.512000000     0.637000000     2.352000000
C    -3.059000000    -0.702000000     0.704000000
C    -4.262000000    -1.191000000     1.315000000
O    -4.540000000    -0.744000000     2.422000000
O    -5.069000000    -1.844000000     0.654000000
