14
-79.62931
C    -2.395000000    -1.618000000     0.113000000
H    -2.961000000    -2.436000000    -0.325000000
C    -1.239000000    -1.059000000    -0.543000000
H    -1.000000000    -1.326000000    -1.569000000
C    -0.413000000    -0.172000000     0.077000000
H     0.402000000     0.247000000    -0.410000000
C    -0.760000000     0.306000000     1.313000000
H    -0.123000000     1.101000000     1.692000000
C    -1.933000000    -0.150000000     1.944000000
H    -2.287000000     0.319000000     2.859000000
C    -2.734000000    -1.137000000     1.332000000
C    -3.839000000    -1.660000000     2.107000000
O    -4.082000000    -1.254000000     3.228000000
O    -4.665000000    -2.410000000     1.638000000
