14
-88.84591
C    -2.117000000     0.149000000    -0.079000000
H    -3.085000000     0.027000000    -0.559000000
C    -0.943000000    -0.400000000    -0.548000000
H    -1.068000000    -0.983000000    -1.457000000
C     0.297000000    -0.243000000     0.099000000
H     1.171000000    -0.612000000    -0.394000000
C     0.309000000     0.518000000     1.278000000
H     1.269000000     0.639000000     1.772000000
C    -0.824000000     1.099000000     1.787000000
H    -0.826000000     1.653000000     2.723000000
C    -2.027000000     0.892000000     1.120000000
C    -3.293000000     1.408000000     1.759000000
O    -3.744000000     0.868000000     2.742000000
O    -3.939000000     2.326000000     1.264000000
