14
-80.47634
C    -2.292000000    -0.811000000     0.630000000
H    -3.151000000    -1.414000000     0.348000000
C    -1.138000000    -0.923000000    -0.202000000
H    -1.127000000    -1.644000000    -1.015000000
C    -0.095000000    -0.092000000     0.077000000
H     0.836000000    -0.240000000    -0.513000000
C    -0.136000000     0.853000000     1.087000000
H     0.690000000     1.545000000     1.223000000
C    -1.278000000     0.976000000     1.901000000
H    -1.310000000     1.790000000     2.621000000
C    -2.337000000     0.132000000     1.674000000
C    -3.550000000     0.293000000     2.411000000
O    -3.741000000     1.391000000     2.941000000
O    -4.504000000    -0.413000000     2.240000000
