14
-90.75146
C    -2.291000000    -0.970000000     1.242000000
H    -3.121000000    -1.673000000     1.231000000
C    -1.554000000    -0.856000000     0.060000000
H    -1.854000000    -1.345000000    -0.863000000
C    -0.539000000     0.022000000    -0.051000000
H     0.040000000     0.043000000    -0.939000000
C    -0.147000000     0.768000000     1.092000000
H     0.699000000     1.441000000     0.977000000
C    -0.878000000     0.670000000     2.282000000
H    -0.602000000     1.280000000     3.138000000
C    -2.006000000    -0.175000000     2.380000000
C    -2.812000000    -0.137000000     3.651000000
O    -2.535000000     0.565000000     4.604000000
O    -3.797000000    -0.892000000     3.694000000
