14
-84.86344
C    -0.797000000    -1.107000000     2.854000000
H    -1.054000000    -1.720000000     3.714000000
C     0.033000000    -1.580000000     1.850000000
H     0.370000000    -2.604000000     1.986000000
C     0.290000000    -0.772000000     0.701000000
H     0.641000000    -1.087000000    -0.249000000
C    -0.230000000     0.502000000     0.748000000
H    -0.177000000     1.153000000    -0.121000000
C    -0.910000000     1.093000000     1.821000000
H    -1.234000000     2.130000000     1.793000000
C    -1.291000000     0.202000000     2.873000000
C    -2.298000000     0.630000000     3.907000000
O    -2.302000000     1.800000000     4.173000000
O    -3.061000000    -0.150000000     4.431000000
