14
-83.84933
C    -1.144000000     0.809000000     1.899000000
H    -1.558000000     0.191000000     2.691000000
C    -0.309000000     0.171000000     1.008000000
H    -0.041000000    -0.864000000     1.201000000
C     0.195000000     0.846000000    -0.082000000
H     0.824000000     0.439000000    -0.835000000
C    -0.071000000     2.212000000    -0.227000000
H     0.241000000     2.815000000    -1.076000000
C    -0.895000000     2.869000000     0.697000000
H    -0.973000000     3.951000000     0.618000000
C    -1.476000000     2.138000000     1.704000000
C    -2.384000000     2.848000000     2.641000000
O    -2.522000000     4.008000000     2.525000000
O    -3.001000000     2.191000000     3.439000000
