14
-90.33574
C    -0.393000000    -0.797000000     2.279000000
H     0.327000000    -1.521000000     2.652000000
C    -0.400000000    -0.542000000     0.916000000
H     0.202000000    -1.161000000     0.256000000
C    -1.185000000     0.447000000     0.370000000
H    -1.209000000     0.693000000    -0.640000000
C    -2.019000000     1.195000000     1.193000000
H    -2.594000000     2.006000000     0.754000000
C    -2.039000000     0.956000000     2.565000000
H    -2.751000000     1.515000000     3.168000000
C    -1.216000000    -0.019000000     3.156000000
C    -1.176000000    -0.149000000     4.708000000
O    -1.773000000     0.597000000     5.442000000
O    -0.625000000    -1.154000000     5.102000000
