14
-79.19087
C    -0.523000000    -1.189000000     2.254000000
H    -0.382000000    -2.126000000     2.786000000
C     0.166000000    -1.153000000     1.038000000
H     0.844000000    -1.950000000     0.743000000
C     0.019000000    -0.042000000     0.243000000
H     0.670000000     0.282000000    -0.644000000
C    -0.755000000     1.013000000     0.649000000
H    -0.897000000     1.828000000    -0.056000000
C    -1.516000000     0.868000000     1.797000000
H    -2.299000000     1.615000000     1.903000000
C    -1.293000000    -0.105000000     2.719000000
C    -2.224000000    -0.174000000     3.992000000
O    -3.181000000     0.584000000     4.010000000
O    -1.972000000    -0.856000000     4.945000000
