14
-82.07738
C    -0.286000000    -1.224000000     2.571000000
H    -0.145000000    -2.142000000     3.136000000
C     0.346000000    -1.126000000     1.337000000
H     1.119000000    -1.829000000     1.037000000
C     0.096000000    -0.052000000     0.470000000
H     0.589000000     0.035000000    -0.557000000
C    -0.809000000     0.928000000     0.821000000
H    -1.055000000     1.689000000     0.085000000
C    -1.449000000     0.829000000     2.043000000
H    -2.198000000     1.597000000     2.220000000
C    -1.255000000    -0.280000000     2.875000000
C    -2.159000000    -0.424000000     4.142000000
O    -3.097000000     0.415000000     4.273000000
O    -2.154000000    -1.256000000     5.003000000
