14
-87.52306
C    -0.288000000    -1.181000000     2.411000000
H     0.082000000    -1.958000000     3.075000000
C     0.225000000    -1.134000000     1.064000000
H     0.901000000    -1.918000000     0.734000000
C    -0.048000000     0.010000000     0.260000000
H     0.250000000     0.146000000    -0.773000000
C    -1.011000000     0.946000000     0.752000000
H    -1.443000000     1.686000000     0.083000000
C    -1.503000000     0.835000000     2.084000000
H    -2.151000000     1.577000000     2.541000000
C    -1.202000000    -0.274000000     2.930000000
C    -1.624000000    -0.302000000     4.396000000
O    -2.491000000     0.494000000     4.730000000
O    -1.296000000    -1.235000000     5.134000000
