14
-86.53907
C     0.180000000    -1.081000000     1.290000000
H     0.641000000    -2.050000000     1.463000000
C     0.499000000    -0.428000000     0.065000000
H     1.249000000    -0.827000000    -0.613000000
C    -0.262000000     0.651000000    -0.354000000
H    -0.015000000     1.127000000    -1.323000000
C    -1.423000000     0.999000000     0.326000000
H    -2.097000000     1.780000000    -0.017000000
C    -1.770000000     0.307000000     1.459000000
H    -2.727000000     0.469000000     1.947000000
C    -0.995000000    -0.736000000     1.973000000
C    -1.588000000    -1.488000000     3.167000000
O    -2.590000000    -1.107000000     3.713000000
O    -0.944000000    -2.407000000     3.595000000
