14
-78.82303
C    -0.110000000    -0.888000000     1.845000000
H     0.539000000    -1.511000000     2.455000000
C     0.442000000    -0.390000000     0.646000000
H     1.500000000    -0.538000000     0.445000000
C    -0.324000000     0.256000000    -0.287000000
H     0.068000000     0.627000000    -1.240000000
C    -1.699000000     0.451000000    -0.018000000
H    -2.347000000     0.969000000    -0.721000000
C    -2.267000000    -0.084000000     1.158000000
H    -3.275000000     0.217000000     1.428000000
C    -1.480000000    -0.713000000     2.118000000
C    -2.018000000    -1.077000000     3.448000000
O    -3.265000000    -1.375000000     3.509000000
O    -1.287000000    -1.391000000     4.271000000
