14
-86.04246
C     0.545000000    -0.519000000     1.660000000
H     1.378000000    -0.861000000     2.270000000
C     0.847000000    -0.169000000     0.368000000
H     1.859000000    -0.205000000    -0.027000000
C    -0.148000000     0.320000000    -0.430000000
H     0.005000000     0.673000000    -1.422000000
C    -1.451000000     0.439000000    -0.025000000
H    -2.194000000     0.905000000    -0.666000000
C    -1.736000000     0.049000000     1.303000000
H    -2.745000000     0.228000000     1.665000000
C    -0.792000000    -0.514000000     2.131000000
C    -1.126000000    -1.143000000     3.481000000
O    -2.263000000    -1.437000000     3.619000000
O    -0.286000000    -1.404000000     4.355000000
