14
-77.17216
C    -0.119000000    -0.453000000     2.144000000
H     0.585000000    -0.688000000     2.938000000
C     0.359000000    -0.337000000     0.863000000
H     1.343000000    -0.664000000     0.540000000
C    -0.472000000     0.150000000    -0.141000000
H    -0.095000000     0.322000000    -1.155000000
C    -1.743000000     0.569000000     0.194000000
H    -2.332000000     1.049000000    -0.584000000
C    -2.240000000     0.487000000     1.504000000
H    -3.185000000     0.942000000     1.787000000
C    -1.467000000    -0.093000000     2.461000000
C    -1.895000000    -0.333000000     3.922000000
O    -3.028000000    -0.098000000     4.177000000
O    -1.317000000    -0.962000000     4.784000000
