14
-82.71245
C    -0.595000000    -1.933000000     2.157000000
H    -0.389000000    -2.683000000     2.916000000
C     0.218000000    -1.796000000     1.053000000
H     1.087000000    -2.441000000     0.957000000
C    -0.075000000    -0.846000000     0.150000000
H     0.568000000    -0.683000000    -0.715000000
C    -1.180000000    -0.016000000     0.275000000
H    -1.451000000     0.684000000    -0.511000000
C    -1.924000000    -0.038000000     1.449000000
H    -2.791000000     0.604000000     1.587000000
C    -1.655000000    -0.985000000     2.424000000
C    -2.484000000    -1.123000000     3.651000000
O    -3.371000000    -0.364000000     3.817000000
O    -2.238000000    -1.954000000     4.484000000
