14
-80.65970
C     0.361000000    -1.286000000     1.681000000
H     1.114000000    -1.973000000     2.060000000
C     0.757000000    -0.616000000     0.523000000
H     1.571000000    -1.001000000    -0.086000000
C    -0.082000000     0.424000000     0.052000000
H     0.142000000     0.917000000    -0.918000000
C    -1.256000000     0.698000000     0.721000000
H    -2.042000000     1.370000000     0.386000000
C    -1.658000000    -0.055000000     1.901000000
H    -2.611000000     0.117000000     2.394000000
C    -0.733000000    -0.957000000     2.419000000
C    -1.116000000    -1.746000000     3.538000000
O    -2.179000000    -1.621000000     4.158000000
O    -0.334000000    -2.613000000     3.965000000
