14
-89.05871
C    -0.726000000     0.709000000     2.207000000
H    -1.038000000     0.686000000     3.249000000
C    -0.625000000    -0.459000000     1.420000000
H    -0.772000000    -1.419000000     1.909000000
C    -0.120000000    -0.435000000     0.089000000
H     0.205000000    -1.310000000    -0.413000000
C     0.126000000     0.793000000    -0.478000000
H     0.485000000     0.749000000    -1.503000000
C    -0.081000000     1.997000000     0.260000000
H     0.176000000     3.008000000    -0.046000000
C    -0.497000000     1.917000000     1.621000000
C    -0.941000000     3.223000000     2.282000000
O    -0.957000000     4.242000000     1.605000000
O    -1.295000000     3.156000000     3.435000000
