14
-72.41331
C     0.696000000    -0.611000000     2.305000000
H     1.269000000    -1.121000000     3.075000000
C     0.970000000    -0.718000000     0.973000000
H     1.857000000    -1.319000000     0.793000000
C     0.363000000     0.041000000    -0.004000000
H     0.747000000    -0.013000000    -1.041000000
C    -0.683000000     0.896000000     0.333000000
H    -1.186000000     1.456000000    -0.451000000
C    -1.138000000     0.871000000     1.646000000
H    -2.030000000     1.394000000     1.982000000
C    -0.448000000     0.189000000     2.597000000
C    -1.012000000     0.072000000     4.033000000
O    -1.967000000     0.682000000     4.307000000
O    -0.497000000    -0.515000000     4.930000000
