14
-78.98218
C     0.314000000     0.063000000     1.991000000
H     0.473000000    -0.472000000     2.924000000
C     1.134000000    -0.270000000     0.968000000
H     2.019000000    -0.886000000     1.110000000
C     0.746000000    -0.039000000    -0.358000000
H     1.413000000    -0.397000000    -1.171000000
C    -0.472000000     0.549000000    -0.661000000
H    -0.667000000     0.808000000    -1.699000000
C    -1.342000000     0.866000000     0.366000000
H    -2.248000000     1.439000000     0.186000000
C    -0.993000000     0.557000000     1.679000000
C    -2.079000000     0.614000000     2.805000000
O    -3.205000000     0.553000000     2.456000000
O    -1.802000000     0.611000000     3.977000000
