14
-86.04067
C    -0.922000000    -1.447000000     1.410000000
H    -1.271000000    -2.477000000     1.406000000
C    -0.504000000    -0.879000000     0.153000000
H    -0.484000000    -1.419000000    -0.790000000
C    -0.009000000     0.394000000     0.088000000
H     0.371000000     0.932000000    -0.795000000
C     0.088000000     1.162000000     1.216000000
H     0.462000000     2.181000000     1.163000000
C    -0.276000000     0.611000000     2.464000000
H    -0.096000000     1.112000000     3.412000000
C    -0.795000000    -0.706000000     2.565000000
C    -1.423000000    -1.132000000     3.900000000
O    -1.307000000    -0.428000000     4.864000000
O    -1.917000000    -2.231000000     3.997000000
