14
-85.69817
C    -1.247000000    -1.963000000     1.474000000
H    -1.479000000    -2.973000000     1.146000000
C    -0.784000000    -1.056000000     0.541000000
H    -0.517000000    -1.410000000    -0.451000000
C    -0.495000000     0.232000000     0.940000000
H    -0.066000000     0.876000000     0.221000000
C    -0.580000000     0.611000000     2.250000000
H    -0.362000000     1.597000000     2.654000000
C    -1.079000000    -0.316000000     3.227000000
H    -1.119000000    -0.011000000     4.269000000
C    -1.465000000    -1.578000000     2.847000000
C    -2.050000000    -2.629000000     3.742000000
O    -2.149000000    -2.419000000     4.940000000
O    -2.612000000    -3.572000000     3.272000000
