14
-83.89559
C    -1.228000000    -1.511000000     1.284000000
H    -1.920000000    -2.271000000     1.639000000
C    -1.053000000    -1.203000000    -0.100000000
H    -1.537000000    -1.858000000    -0.820000000
C    -0.070000000    -0.244000000    -0.489000000
H     0.132000000     0.024000000    -1.543000000
C     0.598000000     0.416000000     0.516000000
H     1.196000000     1.277000000     0.230000000
C     0.471000000     0.042000000     1.853000000
H     1.131000000     0.452000000     2.613000000
C    -0.399000000    -0.929000000     2.231000000
C    -0.519000000    -1.236000000     3.641000000
O     0.321000000    -0.706000000     4.404000000
O    -1.533000000    -1.713000000     4.062000000
