14
-86.36920
C    -0.655000000     1.011000000     2.057000000
H    -0.828000000     0.937000000     3.128000000
C    -0.322000000    -0.107000000     1.419000000
H    -0.321000000    -1.079000000     1.906000000
C    -0.094000000    -0.141000000     0.060000000
H     0.079000000    -1.107000000    -0.473000000
C    -0.182000000     1.070000000    -0.615000000
H    -0.028000000     1.156000000    -1.687000000
C    -0.480000000     2.231000000     0.028000000
H    -0.589000000     3.142000000    -0.554000000
C    -0.769000000     2.240000000     1.376000000
C    -1.316000000     3.472000000     2.065000000
O    -1.917000000     4.282000000     1.427000000
O    -1.193000000     3.470000000     3.271000000
