14
-83.92985
C    -2.241000000    -0.018000000     1.499000000
H    -3.319000000     0.075000000     1.604000000
C    -1.671000000     0.520000000     0.295000000
H    -2.350000000     1.089000000    -0.335000000
C    -0.389000000     0.318000000    -0.172000000
H    -0.128000000     0.792000000    -1.130000000
C     0.373000000    -0.575000000     0.606000000
H     1.393000000    -0.769000000     0.284000000
C    -0.105000000    -1.039000000     1.823000000
H     0.546000000    -1.605000000     2.486000000
C    -1.440000000    -0.891000000     2.293000000
C    -1.953000000    -1.609000000     3.485000000
O    -1.267000000    -2.445000000     4.108000000
O    -3.119000000    -1.509000000     3.839000000
