14
-88.62942
C    -1.196000000     0.819000000     1.092000000
H    -2.069000000     1.407000000     1.362000000
C    -0.718000000     0.969000000    -0.235000000
H    -1.153000000     1.642000000    -0.970000000
C     0.378000000     0.273000000    -0.710000000
H     0.797000000     0.561000000    -1.706000000
C     1.003000000    -0.596000000     0.152000000
H     1.891000000    -1.122000000    -0.189000000
C     0.599000000    -0.746000000     1.458000000
H     1.181000000    -1.398000000     2.103000000
C    -0.553000000    -0.025000000     1.907000000
C    -0.977000000    -0.113000000     3.313000000
O    -0.355000000    -0.829000000     4.102000000
O    -1.985000000     0.495000000     3.700000000
