14
-81.44015
C    -1.406000000     0.845000000     1.356000000
H    -2.129000000     1.651000000     1.454000000
C    -1.005000000     0.584000000     0.049000000
H    -1.408000000     1.203000000    -0.749000000
C     0.060000000    -0.292000000    -0.185000000
H     0.453000000    -0.503000000    -1.224000000
C     0.704000000    -0.938000000     0.900000000
H     1.599000000    -1.537000000     0.748000000
C     0.259000000    -0.722000000     2.213000000
H     0.715000000    -1.207000000     3.073000000
C    -0.769000000     0.216000000     2.456000000
C    -1.182000000     0.447000000     3.830000000
O    -0.893000000    -0.350000000     4.677000000
O    -1.906000000     1.345000000     4.108000000
