14
-81.01518
C    -1.843000000     0.143000000     1.581000000
H    -2.716000000     0.733000000     1.851000000
C    -1.027000000     0.522000000     0.530000000
H    -1.375000000     1.299000000    -0.146000000
C     0.089000000    -0.204000000     0.211000000
H     0.664000000     0.169000000    -0.667000000
C     0.592000000    -1.114000000     1.128000000
H     1.589000000    -1.547000000     1.091000000
C    -0.235000000    -1.533000000     2.118000000
H     0.115000000    -2.279000000     2.827000000
C    -1.451000000    -0.910000000     2.386000000
C    -2.243000000    -1.269000000     3.574000000
O    -1.865000000    -2.130000000     4.363000000
O    -3.284000000    -0.726000000     3.918000000
