14
-83.57736
C    -2.254000000    -0.081000000     1.603000000
H    -3.270000000     0.249000000     1.805000000
C    -1.787000000     0.290000000     0.316000000
H    -2.417000000     0.957000000    -0.267000000
C    -0.472000000    -0.079000000    -0.038000000
H    -0.029000000     0.135000000    -1.018000000
C     0.345000000    -0.850000000     0.863000000
H     1.364000000    -1.134000000     0.613000000
C    -0.166000000    -1.306000000     2.085000000
H     0.429000000    -1.857000000     2.808000000
C    -1.486000000    -0.919000000     2.451000000
C    -1.944000000    -1.299000000     3.877000000
O    -1.479000000    -2.238000000     4.532000000
O    -2.848000000    -0.699000000     4.326000000
