14
-82.48165
C    -0.979000000     1.890000000     2.360000000
H    -1.229000000     2.220000000     3.365000000
C    -0.694000000     0.519000000     2.130000000
H    -0.540000000    -0.194000000     2.936000000
C    -0.386000000     0.132000000     0.847000000
H    -0.044000000    -0.937000000     0.670000000
C    -0.459000000     0.992000000    -0.174000000
H    -0.310000000     0.546000000    -1.154000000
C    -0.720000000     2.322000000     0.017000000
H    -0.676000000     3.004000000    -0.828000000
C    -1.052000000     2.836000000     1.312000000
C    -1.454000000     4.250000000     1.528000000
O    -1.690000000     5.026000000     0.610000000
O    -1.805000000     4.576000000     2.637000000
