14
-86.76470
C    -2.009000000     0.600000000     0.532000000
H    -2.855000000     1.205000000     0.217000000
C    -0.852000000     0.477000000    -0.230000000
H    -0.737000000     1.111000000    -1.105000000
C     0.256000000    -0.185000000     0.305000000
H     1.222000000    -0.088000000    -0.283000000
C     0.079000000    -0.969000000     1.432000000
H     0.909000000    -1.556000000     1.816000000
C    -1.170000000    -1.031000000     2.021000000
H    -1.378000000    -1.572000000     2.940000000
C    -2.210000000    -0.255000000     1.609000000
C    -3.440000000    -0.108000000     2.561000000
O    -3.403000000    -0.608000000     3.640000000
O    -4.437000000     0.463000000     2.132000000
