14
-84.87564
C    -1.822000000     0.874000000     1.401000000
H    -2.683000000     1.529000000     1.500000000
C    -0.996000000     0.852000000     0.276000000
H    -1.118000000     1.449000000    -0.624000000
C     0.177000000     0.062000000     0.348000000
H     0.767000000     0.060000000    -0.550000000
C     0.442000000    -0.704000000     1.432000000
H     1.332000000    -1.329000000     1.401000000
C    -0.326000000    -0.671000000     2.573000000
H    -0.104000000    -1.251000000     3.466000000
C    -1.490000000     0.060000000     2.511000000
C    -2.366000000     0.143000000     3.757000000
O    -2.100000000    -0.513000000     4.701000000
O    -3.444000000     0.779000000     3.796000000
