14
-86.13716
C    -0.938000000     1.164000000    -0.405000000
H    -1.383000000     1.946000000    -1.014000000
C     0.165000000     0.421000000    -0.823000000
H     0.614000000     0.575000000    -1.801000000
C     0.614000000    -0.645000000    -0.108000000
H     1.486000000    -1.238000000    -0.469000000
C    -0.028000000    -1.052000000     1.073000000
H     0.292000000    -1.900000000     1.674000000
C    -1.089000000    -0.337000000     1.561000000
H    -1.655000000    -0.796000000     2.367000000
C    -1.583000000     0.738000000     0.816000000
C    -2.814000000     1.464000000     1.285000000
O    -3.426000000     1.017000000     2.235000000
O    -3.368000000     2.303000000     0.574000000
