14
-86.51450
C    -1.898000000     0.849000000     0.279000000
H    -2.615000000     1.459000000    -0.264000000
C    -0.641000000     0.708000000    -0.239000000
H    -0.518000000     1.162000000    -1.219000000
C     0.307000000    -0.160000000     0.339000000
H     1.313000000    -0.327000000    -0.184000000
C    -0.022000000    -0.795000000     1.552000000
H     0.730000000    -1.431000000     2.013000000
C    -1.256000000    -0.570000000     2.113000000
H    -1.415000000    -1.101000000     3.048000000
C    -2.235000000     0.232000000     1.529000000
C    -3.483000000     0.654000000     2.270000000
O    -3.853000000     0.015000000     3.283000000
O    -4.056000000     1.642000000     1.948000000
