14
-85.05686
C    -2.677000000     1.484000000     0.168000000
H    -3.562000000     2.050000000    -0.111000000
C    -1.579000000     1.338000000    -0.749000000
H    -1.531000000     1.895000000    -1.680000000
C    -0.578000000     0.447000000    -0.438000000
H     0.315000000     0.313000000    -1.020000000
C    -0.605000000    -0.239000000     0.735000000
H     0.200000000    -0.962000000     0.842000000
C    -1.688000000    -0.109000000     1.652000000
H    -1.630000000    -0.618000000     2.611000000
C    -2.764000000     0.707000000     1.362000000
C    -4.042000000     0.799000000     2.186000000
O    -4.248000000     0.094000000     3.119000000
O    -4.788000000     1.797000000     2.002000000
