14
-89.73797
C    -2.189000000     1.423000000     0.312000000
H    -3.069000000     2.009000000     0.063000000
C    -1.168000000     1.268000000    -0.593000000
H    -1.101000000     1.889000000    -1.482000000
C    -0.098000000     0.362000000    -0.376000000
H     0.731000000     0.238000000    -1.040000000
C    -0.085000000    -0.348000000     0.862000000
H     0.754000000    -0.983000000     1.134000000
C    -1.198000000    -0.203000000     1.734000000
H    -1.199000000    -0.822000000     2.627000000
C    -2.221000000     0.642000000     1.520000000
C    -3.490000000     0.629000000     2.398000000
O    -3.283000000     0.433000000     3.588000000
O    -4.593000000     0.781000000     1.949000000
