14
-90.29107
C    -2.022000000     0.353000000     0.295000000
H    -2.796000000     0.793000000    -0.329000000
C    -0.837000000     0.142000000    -0.297000000
H    -0.666000000     0.398000000    -1.340000000
C     0.187000000    -0.521000000     0.475000000
H     1.124000000    -0.762000000    -0.101000000
C     0.037000000    -0.746000000     1.818000000
H     0.733000000    -1.323000000     2.422000000
C    -1.176000000    -0.446000000     2.423000000
H    -1.246000000    -0.580000000     3.499000000
C    -2.222000000     0.069000000     1.662000000
C    -3.475000000     0.410000000     2.455000000
O    -3.624000000    -0.087000000     3.593000000
O    -4.347000000     1.176000000     1.986000000
