14
-86.70855
C    -1.802000000     1.334000000    -0.074000000
H    -2.289000000     2.234000000    -0.439000000
C    -0.610000000     0.918000000    -0.513000000
H    -0.169000000     1.473000000    -1.337000000
C    -0.089000000    -0.301000000    -0.113000000
H     0.926000000    -0.530000000    -0.348000000
C    -0.853000000    -1.177000000     0.658000000
H    -0.463000000    -2.158000000     0.915000000
C    -2.083000000    -0.815000000     1.016000000
H    -2.657000000    -1.545000000     1.580000000
C    -2.562000000     0.466000000     0.797000000
C    -3.931000000     0.944000000     1.394000000
O    -4.417000000     0.271000000     2.296000000
O    -4.404000000     2.024000000     1.024000000
