14
-89.42062
C    -0.548000000     0.954000000     1.472000000
H    -0.946000000     1.260000000     2.437000000
C    -0.427000000    -0.500000000     1.336000000
H    -0.805000000    -1.163000000     2.110000000
C     0.120000000    -0.990000000     0.185000000
H     0.234000000    -2.090000000     0.062000000
C     0.595000000    -0.145000000    -0.801000000
H     1.152000000    -0.583000000    -1.625000000
C     0.440000000     1.238000000    -0.692000000
H     0.676000000     1.912000000    -1.512000000
C    -0.163000000     1.803000000     0.468000000
C    -0.426000000     3.268000000     0.549000000
O    -0.503000000     3.880000000    -0.513000000
O    -0.814000000     3.716000000     1.600000000
