14
-90.33346
C    -1.465000000     2.039000000     0.982000000
H    -2.013000000     2.803000000     0.436000000
C    -0.973000000     0.956000000     0.252000000
H    -1.193000000     0.845000000    -0.807000000
C    -0.414000000    -0.115000000     0.959000000
H    -0.018000000    -1.021000000     0.434000000
C    -0.150000000    -0.001000000     2.296000000
H     0.422000000    -0.759000000     2.826000000
C    -0.629000000     1.134000000     3.041000000
H    -0.487000000     1.163000000     4.118000000
C    -1.337000000     2.097000000     2.378000000
C    -1.979000000     3.157000000     3.204000000
O    -1.737000000     3.394000000     4.402000000
O    -2.796000000     3.877000000     2.620000000
