14
-88.99245
C    -1.413000000     2.387000000     1.069000000
H    -2.171000000     3.167000000     1.076000000
C    -1.121000000     1.770000000    -0.148000000
H    -1.574000000     1.986000000    -1.113000000
C    -0.307000000     0.605000000    -0.165000000
H    -0.238000000     0.039000000    -1.095000000
C     0.226000000     0.088000000     1.045000000
H     0.744000000    -0.862000000     0.948000000
C    -0.052000000     0.735000000     2.252000000
H     0.150000000     0.256000000     3.206000000
C    -0.872000000     1.867000000     2.271000000
C    -1.311000000     2.506000000     3.563000000
O    -0.885000000     2.096000000     4.692000000
O    -2.104000000     3.436000000     3.585000000
