14
-79.19992
C    -0.071000000     2.451000000     1.716000000
H    -0.314000000     3.510000000     1.714000000
C     0.211000000     1.828000000     0.458000000
H     0.349000000     2.362000000    -0.479000000
C     0.247000000     0.471000000     0.352000000
H     0.601000000    -0.031000000    -0.625000000
C     0.003000000    -0.309000000     1.457000000
H    -0.075000000    -1.393000000     1.410000000
C    -0.210000000     0.306000000     2.680000000
H    -0.442000000    -0.345000000     3.520000000
C    -0.314000000     1.671000000     2.898000000
C    -0.758000000     2.329000000     4.140000000
O    -1.304000000     1.782000000     5.074000000
O    -0.610000000     3.518000000     4.209000000
