14
-85.20686
C    -0.295000000     2.643000000     2.438000000
H    -0.415000000     3.679000000     2.743000000
C    -0.342000000     2.404000000     1.013000000
H    -0.562000000     3.262000000     0.382000000
C    -0.362000000     1.169000000     0.570000000
H    -0.508000000     0.996000000    -0.478000000
C    -0.234000000     0.068000000     1.435000000
H    -0.090000000    -0.966000000     1.130000000
C    -0.084000000     0.301000000     2.816000000
H    -0.012000000    -0.578000000     3.452000000
C    -0.164000000     1.613000000     3.329000000
C    -0.316000000     1.842000000     4.815000000
O    -0.767000000     0.931000000     5.513000000
O     0.148000000     2.834000000     5.402000000
