14
-88.38794
C    -0.337000000     3.428000000     2.516000000
H    -0.715000000     4.447000000     2.470000000
C    -0.233000000     2.705000000     1.305000000
H    -0.540000000     3.222000000     0.400000000
C    -0.001000000     1.335000000     1.312000000
H    -0.001000000     0.798000000     0.370000000
C     0.221000000     0.712000000     2.540000000
H     0.310000000    -0.367000000     2.630000000
C     0.341000000     1.458000000     3.721000000
H     0.717000000     0.888000000     4.567000000
C    -0.062000000     2.806000000     3.728000000
C    -0.125000000     3.649000000     5.009000000
O     0.029000000     3.056000000     6.037000000
O    -0.259000000     4.862000000     5.008000000
