14
-83.33924
C     0.434000000     2.392000000     1.091000000
H     0.352000000     3.456000000     1.299000000
C     0.354000000     1.905000000    -0.154000000
H     0.302000000     2.598000000    -0.990000000
C     0.384000000     0.599000000    -0.479000000
H     0.326000000     0.267000000    -1.552000000
C     0.376000000    -0.266000000     0.552000000
H     0.371000000    -1.342000000     0.397000000
C     0.346000000     0.120000000     1.878000000
H     0.187000000    -0.623000000     2.656000000
C     0.446000000     1.532000000     2.167000000
C     0.226000000     2.079000000     3.564000000
O     0.462000000     1.420000000     4.544000000
O    -0.274000000     3.212000000     3.618000000
