14
-88.69679
C    -0.038000000     2.349000000     1.083000000
H    -0.125000000     3.426000000     1.203000000
C     0.152000000     1.856000000    -0.181000000
H     0.145000000     2.593000000    -0.981000000
C     0.242000000     0.455000000    -0.400000000
H     0.498000000     0.008000000    -1.349000000
C     0.326000000    -0.409000000     0.701000000
H     0.440000000    -1.486000000     0.607000000
C     0.131000000     0.095000000     1.999000000
H     0.094000000    -0.589000000     2.843000000
C    -0.038000000     1.482000000     2.150000000
C    -0.327000000     1.946000000     3.544000000
O     0.128000000     1.289000000     4.513000000
O    -1.005000000     2.937000000     3.840000000
