14
-86.10242
C    -0.388000000     1.981000000     0.626000000
H    -0.558000000     3.048000000     0.506000000
C    -0.124000000     1.254000000    -0.527000000
H    -0.006000000     1.776000000    -1.473000000
C     0.082000000    -0.119000000    -0.485000000
H     0.244000000    -0.680000000    -1.405000000
C    -0.010000000    -0.797000000     0.731000000
H     0.211000000    -1.861000000     0.763000000
C    -0.343000000    -0.110000000     1.895000000
H    -0.549000000    -0.634000000     2.825000000
C    -0.482000000     1.340000000     1.854000000
C    -0.737000000     2.089000000     3.164000000
O    -0.319000000     1.743000000     4.250000000
O    -1.232000000     3.189000000     3.119000000
