14
-85.96487
C    -0.736000000     1.863000000     0.678000000
H    -0.972000000     2.858000000     0.308000000
C    -0.251000000     0.937000000    -0.288000000
H    -0.053000000     1.258000000    -1.307000000
C    -0.061000000    -0.382000000     0.097000000
H     0.371000000    -0.985000000    -0.710000000
C    -0.266000000    -0.788000000     1.365000000
H    -0.131000000    -1.838000000     1.611000000
C    -0.617000000     0.143000000     2.331000000
H    -0.873000000    -0.268000000     3.304000000
C    -0.886000000     1.453000000     2.047000000
C    -1.490000000     2.323000000     3.173000000
O    -1.434000000     2.007000000     4.341000000
O    -1.890000000     3.446000000     2.869000000
