14
-88.40026
C    -0.822000000     1.747000000     0.623000000
H    -1.207000000     2.681000000     0.223000000
C    -0.256000000     0.746000000    -0.214000000
H    -0.256000000     0.806000000    -1.299000000
C     0.280000000    -0.386000000     0.416000000
H     0.843000000    -1.085000000    -0.137000000
C     0.263000000    -0.549000000     1.787000000
H     0.788000000    -1.334000000     2.325000000
C    -0.223000000     0.471000000     2.601000000
H    -0.042000000     0.344000000     3.665000000
C    -0.768000000     1.637000000     2.005000000
C    -1.283000000     2.773000000     2.964000000
O    -1.146000000     2.664000000     4.154000000
O    -1.706000000     3.811000000     2.489000000
