14
-84.88155
C    -0.824000000     1.497000000     0.333000000
H    -0.962000000     2.534000000     0.039000000
C    -0.035000000     0.735000000    -0.532000000
H     0.294000000     1.059000000    -1.516000000
C     0.276000000    -0.533000000    -0.044000000
H     0.797000000    -1.178000000    -0.748000000
C    -0.199000000    -1.025000000     1.129000000
H     0.056000000    -2.017000000     1.494000000
C    -0.985000000    -0.227000000     1.998000000
H    -1.331000000    -0.652000000     2.937000000
C    -1.249000000     1.097000000     1.606000000
C    -1.814000000     2.214000000     2.535000000
O    -2.205000000     1.924000000     3.669000000
O    -1.636000000     3.402000000     2.318000000
