14
-85.83439
C    -0.688000000     1.558000000     0.322000000
H    -0.865000000     2.495000000    -0.199000000
C    -0.116000000     0.478000000    -0.324000000
H     0.015000000     0.594000000    -1.397000000
C     0.364000000    -0.652000000     0.386000000
H     0.722000000    -1.566000000    -0.124000000
C     0.156000000    -0.796000000     1.757000000
H     0.439000000    -1.683000000     2.318000000
C    -0.536000000     0.197000000     2.376000000
H    -0.889000000     0.151000000     3.404000000
C    -0.914000000     1.416000000     1.705000000
C    -1.548000000     2.626000000     2.476000000
O    -1.546000000     2.587000000     3.683000000
O    -1.798000000     3.654000000     1.890000000
