14
-91.39280
C    -1.294000000     1.441000000     0.464000000
H    -1.735000000     2.370000000     0.112000000
C    -0.474000000     0.698000000    -0.363000000
H    -0.341000000     1.009000000    -1.396000000
C     0.095000000    -0.499000000     0.132000000
H     0.715000000    -1.057000000    -0.479000000
C    -0.374000000    -1.041000000     1.365000000
H    -0.008000000    -2.042000000     1.576000000
C    -1.270000000    -0.338000000     2.174000000
H    -1.590000000    -0.819000000     3.095000000
C    -1.747000000     0.927000000     1.736000000
C    -2.610000000     1.728000000     2.709000000
O    -2.700000000     1.385000000     3.881000000
O    -3.144000000     2.790000000     2.276000000
