14
-91.32267
C    -0.909000000     1.632000000     1.889000000
H    -1.141000000     1.564000000     2.949000000
C    -0.695000000     0.487000000     1.141000000
H    -0.678000000    -0.441000000     1.706000000
C    -0.496000000     0.485000000    -0.202000000
H    -0.364000000    -0.456000000    -0.802000000
C    -0.514000000     1.676000000    -0.865000000
H    -0.321000000     1.772000000    -1.930000000
C    -0.562000000     2.867000000    -0.131000000
H    -0.481000000     3.819000000    -0.650000000
C    -0.803000000     2.906000000     1.222000000
C    -0.997000000     4.180000000     2.020000000
O    -0.914000000     5.206000000     1.412000000
O    -1.233000000     4.050000000     3.238000000
