14
-83.11061
C    -1.852000000     1.428000000     1.240000000
H    -2.476000000     2.293000000     1.032000000
C    -0.973000000     1.050000000     0.211000000
H    -0.957000000     1.641000000    -0.702000000
C    -0.183000000    -0.081000000     0.374000000
H     0.447000000    -0.463000000    -0.424000000
C    -0.261000000    -0.804000000     1.542000000
H     0.296000000    -1.721000000     1.720000000
C    -1.122000000    -0.360000000     2.526000000
H    -1.169000000    -0.895000000     3.471000000
C    -1.985000000     0.744000000     2.398000000
C    -3.042000000     1.153000000     3.459000000
O    -3.105000000     0.606000000     4.518000000
O    -3.539000000     2.252000000     3.359000000
