14
-83.59005
C    -1.723000000     1.366000000     0.422000000
H    -1.816000000     2.415000000     0.152000000
C    -0.490000000     0.716000000     0.282000000
H     0.343000000     1.189000000    -0.231000000
C    -0.418000000    -0.633000000     0.605000000
H     0.460000000    -1.066000000     0.361000000
C    -1.427000000    -1.265000000     1.270000000
H    -1.317000000    -2.321000000     1.505000000
C    -2.621000000    -0.563000000     1.495000000
H    -3.375000000    -1.068000000     2.093000000
C    -2.790000000     0.731000000     1.048000000
C    -4.136000000     1.347000000     1.263000000
O    -4.939000000     0.757000000     1.963000000
O    -4.454000000     2.308000000     0.658000000
