14
-84.76729
C    -1.905000000     1.284000000    -0.370000000
H    -2.368000000     1.973000000    -1.071000000
C    -0.531000000     1.093000000    -0.432000000
H     0.027000000     1.616000000    -1.205000000
C     0.151000000     0.309000000     0.495000000
H     1.239000000     0.282000000     0.380000000
C    -0.549000000    -0.358000000     1.445000000
H    -0.046000000    -0.866000000     2.264000000
C    -1.975000000    -0.142000000     1.513000000
H    -2.440000000    -0.556000000     2.404000000
C    -2.623000000     0.593000000     0.545000000
C    -4.132000000     0.839000000     0.766000000
O    -4.755000000     0.222000000     1.605000000
O    -4.743000000     1.635000000     0.089000000
