14
-78.79002
C    -1.815000000     1.438000000    -0.007000000
H    -2.493000000     2.217000000    -0.346000000
C    -0.542000000     1.276000000    -0.585000000
H    -0.240000000     2.041000000    -1.296000000
C     0.307000000     0.265000000    -0.179000000
H     1.214000000     0.272000000    -0.644000000
C    -0.087000000    -0.689000000     0.710000000
H     0.534000000    -1.487000000     1.110000000
C    -1.374000000    -0.618000000     1.232000000
H    -1.841000000    -1.396000000     1.830000000
C    -2.219000000     0.490000000     0.938000000
C    -3.638000000     0.543000000     1.400000000
O    -4.035000000    -0.375000000     2.025000000
O    -4.311000000     1.547000000     1.371000000
