14
-63.51915
C    -2.930000000     0.891000000     0.138000000
H    -3.826000000     1.422000000    -0.170000000
C    -1.638000000     1.157000000    -0.310000000
H    -1.512000000     1.992000000    -0.994000000
C    -0.566000000     0.509000000     0.179000000
H     0.428000000     0.862000000    -0.104000000
C    -0.729000000    -0.515000000     1.064000000
H     0.149000000    -1.016000000     1.465000000
C    -1.980000000    -0.794000000     1.473000000
H    -2.072000000    -1.636000000     2.153000000
C    -3.096000000    -0.119000000     1.045000000
C    -4.457000000    -0.342000000     1.695000000
O    -4.569000000    -1.008000000     2.683000000
O    -5.334000000     0.408000000     1.556000000
