14
-85.80172
C    -1.918000000    -0.134000000    -0.175000000
H    -2.658000000     0.222000000    -0.887000000
C    -0.519000000    -0.229000000    -0.422000000
H    -0.105000000     0.080000000    -1.379000000
C     0.333000000    -0.531000000     0.643000000
H     1.455000000    -0.441000000     0.498000000
C    -0.173000000    -0.926000000     1.865000000
H     0.513000000    -1.319000000     2.611000000
C    -1.547000000    -0.967000000     2.055000000
H    -1.951000000    -1.366000000     2.982000000
C    -2.378000000    -0.523000000     1.052000000
C    -3.859000000    -0.209000000     1.364000000
O    -4.355000000    -0.611000000     2.424000000
O    -4.505000000     0.540000000     0.704000000
