14
-84.37981
C    -2.213000000     1.417000000    -0.424000000
H    -2.828000000     2.238000000    -0.781000000
C    -0.876000000     1.382000000    -0.976000000
H    -0.460000000     2.166000000    -1.603000000
C    -0.134000000     0.330000000    -0.519000000
H     0.874000000     0.134000000    -0.956000000
C    -0.583000000    -0.582000000     0.403000000
H     0.065000000    -1.372000000     0.773000000
C    -1.964000000    -0.604000000     0.801000000
H    -2.241000000    -1.317000000     1.573000000
C    -2.811000000     0.400000000     0.319000000
C    -4.277000000     0.465000000     0.802000000
O    -4.731000000    -0.517000000     1.362000000
O    -4.984000000     1.420000000     0.620000000
