14
-92.96306
C    -2.146000000     0.823000000     0.410000000
H    -3.102000000     1.288000000     0.182000000
C    -1.092000000     1.059000000    -0.435000000
H    -1.255000000     1.685000000    -1.308000000
C     0.085000000     0.356000000    -0.254000000
H     0.941000000     0.480000000    -0.962000000
C     0.245000000    -0.569000000     0.778000000
H     1.130000000    -1.191000000     0.887000000
C    -0.835000000    -0.764000000     1.630000000
H    -0.754000000    -1.424000000     2.490000000
C    -2.039000000    -0.070000000     1.494000000
C    -3.171000000    -0.151000000     2.486000000
O    -2.991000000    -0.687000000     3.580000000
O    -4.324000000     0.223000000     2.183000000
