14
-87.11291
C    -1.934000000     1.741000000     1.474000000
H    -2.334000000     2.579000000     2.039000000
C    -0.655000000     1.805000000     0.964000000
H     0.086000000     2.550000000     1.244000000
C    -0.235000000     0.834000000    -0.012000000
H     0.735000000     1.017000000    -0.446000000
C    -1.171000000    -0.116000000    -0.478000000
H    -0.930000000    -0.849000000    -1.243000000
C    -2.408000000    -0.141000000     0.092000000
H    -3.177000000    -0.797000000    -0.305000000
C    -2.795000000     0.702000000     1.152000000
C    -4.257000000     0.817000000     1.726000000
O    -4.940000000    -0.202000000     1.851000000
O    -4.793000000     1.911000000     1.967000000
