14
-90.83858
C    -1.489000000     1.787000000     0.585000000
H    -1.919000000     2.710000000     0.966000000
C    -0.289000000     1.805000000    -0.094000000
H     0.088000000     2.731000000    -0.520000000
C     0.310000000     0.580000000    -0.389000000
H     1.230000000     0.616000000    -0.908000000
C    -0.208000000    -0.654000000     0.033000000
H     0.222000000    -1.625000000    -0.198000000
C    -1.453000000    -0.615000000     0.667000000
H    -1.879000000    -1.582000000     0.919000000
C    -2.086000000     0.589000000     0.957000000
C    -3.374000000     0.640000000     1.762000000
O    -3.789000000    -0.418000000     2.249000000
O    -4.016000000     1.663000000     1.992000000
