14
-86.46088
C    -1.116000000     1.533000000     0.404000000
H    -1.341000000     2.596000000     0.423000000
C     0.019000000     0.928000000    -0.142000000
H     0.717000000     1.503000000    -0.746000000
C     0.350000000    -0.399000000     0.117000000
H     1.386000000    -0.778000000    -0.170000000
C    -0.513000000    -1.188000000     0.942000000
H    -0.229000000    -2.199000000     1.222000000
C    -1.696000000    -0.640000000     1.424000000
H    -2.362000000    -1.271000000     2.006000000
C    -2.001000000     0.692000000     1.162000000
C    -3.318000000     1.314000000     1.690000000
O    -4.115000000     0.651000000     2.373000000
O    -3.585000000     2.433000000     1.436000000
