14
-89.39278
C    -1.759000000     2.239000000     0.990000000
H    -1.930000000     3.147000000     1.563000000
C    -0.436000000     1.795000000     0.820000000
H     0.364000000     2.403000000     1.235000000
C    -0.218000000     0.578000000     0.138000000
H     0.808000000     0.259000000    -0.157000000
C    -1.355000000    -0.099000000    -0.384000000
H    -1.217000000    -0.981000000    -1.005000000
C    -2.678000000     0.360000000    -0.213000000
H    -3.600000000    -0.038000000    -0.628000000
C    -2.856000000     1.529000000     0.538000000
C    -4.258000000     2.047000000     0.911000000
O    -5.276000000     1.422000000     0.665000000
O    -4.405000000     3.095000000     1.586000000
