14
-84.07373
C    -1.598000000     1.753000000     1.568000000
H    -1.397000000     2.452000000     2.375000000
C    -0.574000000     0.872000000     1.145000000
H     0.425000000     0.933000000     1.570000000
C    -0.722000000     0.063000000     0.027000000
H     0.153000000    -0.360000000    -0.417000000
C    -1.899000000     0.064000000    -0.718000000
H    -1.955000000    -0.651000000    -1.535000000
C    -2.976000000     0.925000000    -0.381000000
H    -3.964000000     0.953000000    -0.833000000
C    -2.770000000     1.750000000     0.789000000
C    -3.908000000     2.675000000     1.157000000
O    -4.880000000     2.772000000     0.495000000
O    -3.812000000     3.378000000     2.191000000
