14
-90.15641
C    -0.963000000     1.668000000    -0.251000000
H    -1.033000000     2.495000000    -0.952000000
C     0.222000000     0.925000000    -0.215000000
H     0.946000000     1.249000000    -0.958000000
C     0.347000000    -0.267000000     0.462000000
H     1.256000000    -0.866000000     0.334000000
C    -0.752000000    -0.632000000     1.210000000
H    -0.596000000    -1.560000000     1.753000000
C    -1.946000000     0.074000000     1.250000000
H    -2.808000000    -0.337000000     1.770000000
C    -2.069000000     1.270000000     0.550000000
C    -3.387000000     2.013000000     0.595000000
O    -4.316000000     1.516000000     1.196000000
O    -3.490000000     3.140000000     0.083000000
