14
-77.88178
C    -1.494000000     1.783000000    -0.351000000
H    -1.861000000     2.663000000    -0.873000000
C    -0.233000000     1.304000000    -0.351000000
H     0.485000000     2.009000000    -0.763000000
C     0.122000000     0.090000000     0.222000000
H     1.077000000    -0.252000000     0.150000000
C    -0.853000000    -0.674000000     0.846000000
H    -0.518000000    -1.559000000     1.382000000
C    -2.184000000    -0.159000000     0.923000000
H    -2.934000000    -0.601000000     1.575000000
C    -2.453000000     1.076000000     0.360000000
C    -3.882000000     1.621000000     0.506000000
O    -4.760000000     1.105000000     1.146000000
O    -4.050000000     2.749000000     0.167000000
