14
-87.21934
C    -2.087000000     1.109000000    -0.528000000
H    -2.216000000     1.907000000    -1.255000000
C    -0.854000000     0.459000000    -0.402000000
H     0.013000000     0.750000000    -0.990000000
C    -0.796000000    -0.676000000     0.405000000
H     0.087000000    -1.388000000     0.445000000
C    -1.916000000    -1.186000000     1.095000000
H    -1.878000000    -2.150000000     1.594000000
C    -3.139000000    -0.555000000     0.888000000
H    -4.000000000    -1.020000000     1.359000000
C    -3.234000000     0.626000000     0.129000000
C    -4.552000000     1.252000000    -0.048000000
O    -5.484000000     0.830000000     0.576000000
O    -4.588000000     2.286000000    -0.690000000
