14
-83.89533
C    -1.791000000     0.969000000    -0.569000000
H    -2.087000000     1.825000000    -1.170000000
C    -0.431000000     0.610000000    -0.779000000
H     0.237000000     1.233000000    -1.369000000
C     0.075000000    -0.449000000    -0.039000000
H     1.159000000    -0.761000000    -0.098000000
C    -0.697000000    -1.096000000     0.886000000
H    -0.267000000    -2.000000000     1.309000000
C    -2.009000000    -0.670000000     1.121000000
H    -2.657000000    -1.236000000     1.785000000
C    -2.568000000     0.435000000     0.424000000
C    -3.929000000     0.867000000     0.615000000
O    -4.723000000     0.135000000     1.173000000
O    -4.200000000     2.048000000     0.419000000
