14
-80.72766
C    -1.459000000     1.590000000     0.183000000
H    -1.899000000     2.561000000    -0.030000000
C    -0.261000000     1.181000000    -0.372000000
H     0.244000000     1.753000000    -1.146000000
C     0.399000000     0.005000000     0.133000000
H     1.364000000    -0.414000000    -0.251000000
C    -0.271000000    -0.720000000     1.108000000
H     0.189000000    -1.651000000     1.430000000
C    -1.450000000    -0.337000000     1.626000000
H    -1.969000000    -0.962000000     2.348000000
C    -2.083000000     0.836000000     1.169000000
C    -3.390000000     1.224000000     1.729000000
O    -3.911000000     0.687000000     2.734000000
O    -3.908000000     2.298000000     1.470000000
