14
-86.31315
C    -2.357000000     1.408000000     0.004000000
H    -2.640000000     2.432000000    -0.227000000
C    -1.084000000     0.943000000    -0.402000000
H    -0.363000000     1.559000000    -0.934000000
C    -0.704000000    -0.380000000    -0.160000000
H     0.260000000    -0.699000000    -0.576000000
C    -1.535000000    -1.204000000     0.522000000
H    -1.193000000    -2.186000000     0.840000000
C    -2.744000000    -0.729000000     1.026000000
H    -3.359000000    -1.489000000     1.501000000
C    -3.181000000     0.600000000     0.781000000
C    -4.582000000     0.923000000     1.273000000
O    -5.216000000     0.137000000     1.906000000
O    -4.930000000     2.127000000     1.262000000
