14
-86.82532
C    -2.067000000     1.174000000    -0.087000000
H    -2.460000000     1.983000000    -0.699000000
C    -0.899000000     0.476000000    -0.529000000
H    -0.338000000     0.852000000    -1.381000000
C    -0.310000000    -0.535000000     0.242000000
H     0.584000000    -1.049000000    -0.065000000
C    -1.008000000    -0.932000000     1.336000000
H    -0.607000000    -1.766000000     1.906000000
C    -2.091000000    -0.197000000     1.835000000
H    -2.616000000    -0.621000000     2.687000000
C    -2.654000000     0.867000000     1.121000000
C    -3.939000000     1.523000000     1.548000000
O    -4.505000000     1.111000000     2.532000000
O    -4.322000000     2.549000000     1.014000000
