14
-86.99238
C    -1.461000000     2.047000000     0.964000000
H    -1.465000000     3.123000000     1.119000000
C    -0.263000000     1.654000000     0.357000000
H     0.454000000     2.440000000     0.134000000
C     0.025000000     0.305000000     0.234000000
H     1.017000000    -0.008000000    -0.078000000
C    -0.927000000    -0.596000000     0.628000000
H    -0.673000000    -1.648000000     0.529000000
C    -2.147000000    -0.263000000     1.224000000
H    -2.760000000    -1.040000000     1.674000000
C    -2.394000000     1.125000000     1.362000000
C    -3.617000000     1.599000000     2.236000000
O    -4.247000000     0.692000000     2.760000000
O    -3.654000000     2.750000000     2.544000000
