14
-85.55845
C    -1.793000000     1.700000000    -0.100000000
H    -2.247000000     2.627000000    -0.441000000
C    -0.457000000     1.360000000    -0.509000000
H     0.127000000     1.957000000    -1.206000000
C     0.155000000     0.304000000     0.082000000
H     1.256000000     0.222000000    -0.084000000
C    -0.542000000    -0.535000000     0.945000000
H    -0.060000000    -1.437000000     1.314000000
C    -1.855000000    -0.198000000     1.367000000
H    -2.377000000    -0.899000000     2.013000000
C    -2.411000000     0.994000000     0.887000000
C    -3.764000000     1.427000000     1.431000000
O    -4.330000000     0.702000000     2.235000000
O    -4.110000000     2.588000000     1.346000000
