14
-87.53630
C    -2.932000000     0.978000000     0.732000000
H    -3.602000000     1.782000000     0.439000000
C    -1.702000000     0.784000000     0.070000000
H    -1.464000000     1.357000000    -0.823000000
C    -0.708000000    -0.038000000     0.596000000
H     0.200000000    -0.052000000     0.079000000
C    -0.969000000    -0.766000000     1.758000000
H    -0.218000000    -1.456000000     2.135000000
C    -2.274000000    -0.655000000     2.376000000
H    -2.474000000    -1.288000000     3.237000000
C    -3.227000000     0.286000000     1.935000000
C    -4.391000000     0.689000000     2.785000000
O    -4.698000000    -0.035000000     3.700000000
O    -5.058000000     1.646000000     2.486000000
