14
-82.96155
C    -1.098000000     1.403000000     0.151000000
H    -1.440000000     2.286000000    -0.382000000
C     0.013000000     0.806000000    -0.422000000
H     0.528000000     1.250000000    -1.269000000
C     0.543000000    -0.359000000     0.174000000
H     1.396000000    -0.870000000    -0.289000000
C    -0.099000000    -0.845000000     1.294000000
H     0.414000000    -1.692000000     1.743000000
C    -1.230000000    -0.278000000     1.881000000
H    -1.662000000    -0.707000000     2.782000000
C    -1.688000000     0.885000000     1.296000000
C    -2.944000000     1.554000000     1.783000000
O    -3.774000000     0.946000000     2.443000000
O    -3.172000000     2.662000000     1.485000000
