14
-89.53448
C    -0.561000000     2.283000000     0.775000000
H    -0.859000000     3.313000000     0.593000000
C    -0.487000000     1.489000000    -0.382000000
H    -0.663000000     1.909000000    -1.368000000
C    -0.019000000     0.243000000    -0.281000000
H     0.112000000    -0.394000000    -1.182000000
C     0.301000000    -0.331000000     0.949000000
H     0.650000000    -1.359000000     1.008000000
C     0.190000000     0.431000000     2.131000000
H     0.544000000     0.093000000     3.101000000
C    -0.263000000     1.777000000     2.065000000
C    -0.416000000     2.577000000     3.292000000
O    -0.076000000     2.117000000     4.370000000
O    -1.036000000     3.633000000     3.203000000
