14
-78.76682
C    -0.179000000     2.028000000     1.314000000
H    -0.261000000     3.105000000     1.197000000
C     0.121000000     1.139000000     0.281000000
H     0.182000000     1.572000000    -0.714000000
C     0.376000000    -0.208000000     0.601000000
H     0.572000000    -0.856000000    -0.240000000
C     0.138000000    -0.703000000     1.890000000
H     0.370000000    -1.729000000     2.166000000
C    -0.033000000     0.186000000     2.941000000
H    -0.019000000    -0.165000000     3.969000000
C    -0.344000000     1.478000000     2.635000000
C    -0.602000000     2.408000000     3.730000000
O    -0.353000000     2.158000000     4.923000000
O    -1.262000000     3.375000000     3.525000000
