14
-93.07300
C    -2.374000000     0.577000000     1.500000000
H    -3.263000000     0.462000000     2.115000000
C    -2.050000000    -0.432000000     0.598000000
H    -2.688000000    -1.307000000     0.508000000
C    -0.899000000    -0.323000000    -0.216000000
H    -0.586000000    -1.120000000    -0.900000000
C    -0.084000000     0.767000000    -0.081000000
H     0.861000000     0.816000000    -0.614000000
C    -0.424000000     1.813000000     0.817000000
H     0.246000000     2.663000000     0.918000000
C    -1.595000000     1.687000000     1.563000000
C    -1.942000000     2.760000000     2.580000000
O    -1.422000000     3.842000000     2.441000000
O    -2.718000000     2.529000000     3.511000000
