14
-86.20711
C    -1.468000000     1.470000000     1.061000000
H    -2.120000000     1.633000000     1.915000000
C    -0.624000000     0.314000000     1.014000000
H    -0.689000000    -0.468000000     1.766000000
C     0.372000000     0.079000000     0.002000000
H     0.946000000    -0.811000000    -0.052000000
C     0.537000000     1.096000000    -0.935000000
H     1.226000000     0.893000000    -1.752000000
C    -0.349000000     2.200000000    -0.873000000
H    -0.401000000     2.908000000    -1.695000000
C    -1.266000000     2.457000000     0.088000000
C    -2.115000000     3.696000000     0.140000000
O    -2.117000000     4.442000000    -0.854000000
O    -2.911000000     3.892000000     1.036000000
