14
-85.46674
C    -1.943000000     1.251000000     1.164000000
H    -2.961000000     1.034000000     1.477000000
C    -1.134000000     0.348000000     0.559000000
H    -1.470000000    -0.652000000     0.296000000
C     0.095000000     0.784000000     0.101000000
H     0.689000000     0.128000000    -0.395000000
C     0.525000000     2.089000000     0.342000000
H     1.411000000     2.406000000    -0.202000000
C    -0.259000000     3.066000000     0.952000000
H     0.036000000     4.111000000     1.008000000
C    -1.549000000     2.583000000     1.424000000
C    -2.542000000     3.605000000     1.975000000
O    -2.204000000     4.740000000     1.986000000
O    -3.637000000     3.221000000     2.394000000
