14
-91.62700
C     0.194000000     0.446000000     2.197000000
H     0.334000000    -0.017000000     3.170000000
C     0.848000000    -0.121000000     1.135000000
H     1.375000000    -1.060000000     1.279000000
C     0.672000000     0.356000000    -0.178000000
H     1.079000000    -0.197000000    -1.056000000
C    -0.219000000     1.453000000    -0.381000000
H    -0.454000000     1.813000000    -1.379000000
C    -0.909000000     1.977000000     0.720000000
H    -1.590000000     2.815000000     0.594000000
C    -0.629000000     1.530000000     2.025000000
C    -1.213000000     2.056000000     3.329000000
O    -2.171000000     2.852000000     3.318000000
O    -0.671000000     1.737000000     4.395000000
