14
-87.25375
C    -0.457000000     1.083000000     1.790000000
H    -0.435000000     0.519000000     2.719000000
C    -0.017000000     0.424000000     0.669000000
H     0.546000000    -0.482000000     0.878000000
C    -0.076000000     1.010000000    -0.571000000
H     0.311000000     0.529000000    -1.437000000
C    -0.717000000     2.246000000    -0.648000000
H    -0.850000000     2.752000000    -1.601000000
C    -1.294000000     2.827000000     0.509000000
H    -1.771000000     3.794000000     0.371000000
C    -1.077000000     2.325000000     1.777000000
C    -1.569000000     2.971000000     3.054000000
O    -1.780000000     4.203000000     3.184000000
O    -1.547000000     2.301000000     4.107000000
