14
-91.22883
C    -2.145000000     0.626000000     0.514000000
H    -2.974000000     0.488000000     1.204000000
C    -0.998000000    -0.137000000     0.755000000
H    -0.998000000    -0.661000000     1.708000000
C     0.144000000    -0.055000000    -0.023000000
H     1.017000000    -0.617000000     0.326000000
C     0.060000000     0.674000000    -1.186000000
H     0.883000000     0.731000000    -1.893000000
C    -1.074000000     1.419000000    -1.465000000
H    -1.045000000     2.085000000    -2.324000000
C    -2.142000000     1.516000000    -0.585000000
C    -3.361000000     2.397000000    -0.805000000
O    -3.278000000     3.175000000    -1.760000000
O    -4.195000000     2.497000000     0.096000000
