14
-86.45167
C    -0.705000000     1.748000000     3.023000000
H    -0.843000000     1.450000000     4.059000000
C    -0.117000000     0.800000000     2.195000000
H     0.195000000    -0.128000000     2.666000000
C     0.120000000     1.136000000     0.889000000
H     0.481000000     0.359000000     0.272000000
C    -0.192000000     2.382000000     0.367000000
H     0.154000000     2.629000000    -0.633000000
C    -0.667000000     3.309000000     1.230000000
H    -0.731000000     4.346000000     0.908000000
C    -0.946000000     3.076000000     2.582000000
C    -1.232000000     4.268000000     3.456000000
O    -1.592000000     5.347000000     2.933000000
O    -1.122000000     4.207000000     4.659000000
