14
-91.08735
C     0.126000000     1.769000000     2.159000000
H     0.248000000     2.005000000     3.212000000
C     0.943000000     0.873000000     1.522000000
H     1.806000000     0.428000000     2.010000000
C     0.617000000     0.542000000     0.180000000
H     1.237000000    -0.199000000    -0.403000000
C    -0.482000000     1.129000000    -0.465000000
H    -0.667000000     0.949000000    -1.521000000
C    -1.289000000     2.040000000     0.178000000
H    -2.100000000     2.511000000    -0.372000000
C    -0.987000000     2.401000000     1.475000000
C    -1.777000000     3.430000000     2.269000000
O    -2.969000000     3.654000000     2.093000000
O    -1.187000000     3.954000000     3.202000000
