14
-86.69150
C    -0.746000000     1.048000000     2.567000000
H    -0.561000000     0.885000000     3.626000000
C    -0.263000000     0.111000000     1.614000000
H     0.249000000    -0.793000000     1.935000000
C    -0.461000000     0.326000000     0.267000000
H    -0.205000000    -0.321000000    -0.589000000
C    -1.132000000     1.491000000    -0.151000000
H    -1.108000000     1.668000000    -1.224000000
C    -1.604000000     2.377000000     0.758000000
H    -2.107000000     3.260000000     0.372000000
C    -1.407000000     2.204000000     2.127000000
C    -2.049000000     3.218000000     3.051000000
O    -2.830000000     4.043000000     2.578000000
O    -1.415000000     3.475000000     4.085000000
