14
-84.01804
C    -1.061000000     1.401000000     2.797000000
H    -1.066000000     1.020000000     3.815000000
C    -0.569000000     0.514000000     1.815000000
H    -0.096000000    -0.419000000     2.112000000
C    -0.877000000     0.733000000     0.436000000
H    -0.542000000     0.007000000    -0.351000000
C    -1.640000000     1.798000000     0.107000000
H    -1.922000000     1.950000000    -0.932000000
C    -2.019000000     2.745000000     1.057000000
H    -2.472000000     3.702000000     0.810000000
C    -1.831000000     2.490000000     2.436000000
C    -2.452000000     3.401000000     3.479000000
O    -3.364000000     4.157000000     3.163000000
O    -2.084000000     3.457000000     4.625000000
