14
-86.79865
C    -0.765000000     1.489000000     1.637000000
H    -0.556000000     1.595000000     2.699000000
C    -0.282000000     0.382000000     0.925000000
H     0.288000000    -0.403000000     1.416000000
C    -0.553000000     0.199000000    -0.441000000
H    -0.086000000    -0.652000000    -0.956000000
C    -1.220000000     1.215000000    -1.128000000
H    -1.377000000     1.085000000    -2.196000000
C    -1.750000000     2.290000000    -0.406000000
H    -2.397000000     3.024000000    -0.880000000
C    -1.507000000     2.491000000     0.927000000
C    -1.945000000     3.714000000     1.661000000
O    -2.209000000     4.721000000     1.097000000
O    -2.066000000     3.607000000     2.853000000
