14
-88.96935
C    -0.838000000     0.860000000     1.351000000
H    -0.834000000     0.848000000     2.438000000
C    -0.202000000    -0.203000000     0.659000000
H     0.323000000    -1.034000000     1.123000000
C    -0.125000000    -0.162000000    -0.717000000
H     0.520000000    -0.897000000    -1.302000000
C    -0.845000000     0.791000000    -1.483000000
H    -0.758000000     0.761000000    -2.566000000
C    -1.444000000     1.871000000    -0.813000000
H    -1.930000000     2.649000000    -1.396000000
C    -1.403000000     1.939000000     0.607000000
C    -2.098000000     3.124000000     1.283000000
O    -2.920000000     3.727000000     0.582000000
O    -2.056000000     3.221000000     2.478000000
