14
-89.42819
C    -0.648000000     0.877000000     1.837000000
H    -0.344000000     1.138000000     2.848000000
C     0.067000000    -0.083000000     1.211000000
H     0.838000000    -0.630000000     1.747000000
C    -0.058000000    -0.241000000    -0.197000000
H     0.539000000    -0.952000000    -0.692000000
C    -1.002000000     0.493000000    -0.903000000
H    -1.126000000     0.369000000    -1.976000000
C    -1.775000000     1.431000000    -0.261000000
H    -2.422000000     2.078000000    -0.849000000
C    -1.631000000     1.622000000     1.114000000
C    -2.454000000     2.630000000     1.799000000
O    -3.374000000     3.159000000     1.231000000
O    -2.029000000     3.012000000     2.910000000
