14
-86.25434
C    -1.100000000     0.358000000     1.397000000
H    -1.325000000     0.160000000     2.442000000
C    -0.197000000    -0.362000000     0.604000000
H     0.374000000    -1.220000000     0.951000000
C     0.053000000    -0.024000000    -0.760000000
H     0.868000000    -0.541000000    -1.337000000
C    -0.572000000     1.040000000    -1.263000000
H    -0.417000000     1.386000000    -2.282000000
C    -1.491000000     1.776000000    -0.455000000
H    -1.860000000     2.668000000    -0.955000000
C    -1.788000000     1.458000000     0.861000000
C    -2.635000000     2.397000000     1.753000000
O    -3.071000000     3.434000000     1.387000000
O    -2.707000000     2.070000000     2.961000000
