14
-84.95624
C    -2.182000000     1.180000000     0.037000000
H    -3.182000000     1.467000000     0.354000000
C    -1.638000000     0.103000000     0.638000000
H    -2.182000000    -0.541000000     1.324000000
C    -0.370000000    -0.316000000     0.293000000
H     0.019000000    -1.151000000     0.842000000
C     0.259000000     0.286000000    -0.755000000
H     1.273000000    -0.010000000    -1.013000000
C    -0.303000000     1.341000000    -1.465000000
H     0.237000000     1.740000000    -2.319000000
C    -1.549000000     1.822000000    -1.084000000
C    -2.208000000     3.043000000    -1.722000000
O    -1.584000000     3.683000000    -2.557000000
O    -3.146000000     3.494000000    -1.146000000
