14
-86.92623
C    -0.244000000     0.868000000     2.240000000
H     0.072000000     0.901000000     3.280000000
C     0.263000000    -0.142000000     1.477000000
H     0.944000000    -0.836000000     1.964000000
C    -0.001000000    -0.266000000     0.087000000
H     0.292000000    -1.209000000    -0.444000000
C    -0.752000000     0.705000000    -0.513000000
H    -1.042000000     0.502000000    -1.541000000
C    -1.288000000     1.733000000     0.253000000
H    -1.925000000     2.489000000    -0.198000000
C    -1.094000000     1.795000000     1.641000000
C    -1.727000000     2.896000000     2.407000000
O    -2.221000000     3.811000000     1.776000000
O    -1.518000000     3.026000000     3.606000000
