14
-88.42970
C    -0.729000000     0.014000000     1.354000000
H    -0.464000000    -0.523000000     2.261000000
C    -0.141000000    -0.541000000     0.201000000
H     0.657000000    -1.275000000     0.274000000
C    -0.441000000    -0.070000000    -1.093000000
H     0.048000000    -0.527000000    -1.952000000
C    -1.295000000     1.053000000    -1.194000000
H    -1.518000000     1.376000000    -2.208000000
C    -1.901000000     1.550000000    -0.035000000
H    -2.682000000     2.299000000    -0.146000000
C    -1.611000000     1.081000000     1.274000000
C    -2.429000000     1.649000000     2.400000000
O    -3.312000000     2.512000000     2.243000000
O    -2.053000000     1.403000000     3.536000000
