14
-77.04735
C    -2.339000000     1.203000000     0.427000000
H    -3.210000000     1.357000000     1.059000000
C    -1.391000000     0.358000000     0.914000000
H    -1.491000000    -0.053000000     1.915000000
C    -0.294000000     0.084000000     0.119000000
H     0.476000000    -0.500000000     0.562000000
C    -0.006000000     0.751000000    -1.062000000
H     0.872000000     0.561000000    -1.673000000
C    -0.960000000     1.678000000    -1.460000000
H    -0.867000000     2.170000000    -2.425000000
C    -2.085000000     1.966000000    -0.747000000
C    -3.105000000     2.983000000    -1.159000000
O    -2.918000000     3.807000000    -2.002000000
O    -4.277000000     2.964000000    -0.778000000
