14
-81.46252
C    -0.568000000     0.814000000     2.041000000
H    -0.156000000     1.213000000     2.964000000
C     0.290000000     0.207000000     1.127000000
H     1.240000000    -0.129000000     1.535000000
C    -0.259000000    -0.191000000    -0.089000000
H     0.383000000    -0.705000000    -0.803000000
C    -1.639000000     0.062000000    -0.429000000
H    -2.003000000    -0.189000000    -1.422000000
C    -2.479000000     0.643000000     0.527000000
H    -3.539000000     0.808000000     0.353000000
C    -1.943000000     0.962000000     1.804000000
C    -2.691000000     1.587000000     2.986000000
O    -3.836000000     1.825000000     2.804000000
O    -2.078000000     2.139000000     3.869000000
