14
-80.33056
C    -1.577000000     0.141000000     1.634000000
H    -1.424000000    -0.067000000     2.690000000
C    -0.612000000    -0.241000000     0.646000000
H     0.239000000    -0.869000000     0.895000000
C    -0.651000000     0.178000000    -0.714000000
H     0.040000000    -0.082000000    -1.362000000
C    -1.646000000     1.086000000    -1.078000000
H    -1.840000000     1.432000000    -2.090000000
C    -2.525000000     1.596000000    -0.069000000
H    -3.203000000     2.411000000    -0.308000000
C    -2.488000000     1.142000000     1.261000000
C    -3.345000000     1.877000000     2.268000000
O    -4.247000000     2.651000000     1.960000000
O    -2.966000000     1.897000000     3.403000000
