14
-87.23393
C    -0.987000000     0.415000000     2.078000000
H    -0.775000000     0.324000000     3.140000000
C     0.024000000     0.100000000     1.168000000
H     0.943000000    -0.363000000     1.517000000
C    -0.022000000     0.516000000    -0.160000000
H     0.816000000     0.225000000    -0.770000000
C    -1.278000000     1.019000000    -0.625000000
H    -1.300000000     1.338000000    -1.664000000
C    -2.367000000     1.172000000     0.230000000
H    -3.310000000     1.590000000    -0.111000000
C    -2.143000000     1.018000000     1.605000000
C    -3.190000000     1.490000000     2.531000000
O    -4.353000000     1.613000000     2.119000000
O    -2.974000000     1.860000000     3.693000000
