14
-87.84798
C    -0.702000000     0.915000000     2.193000000
H    -0.388000000     1.217000000     3.188000000
C     0.261000000     0.564000000     1.295000000
H     1.304000000     0.521000000     1.598000000
C    -0.073000000     0.310000000    -0.061000000
H     0.734000000     0.115000000    -0.746000000
C    -1.411000000     0.348000000    -0.484000000
H    -1.677000000     0.161000000    -1.521000000
C    -2.388000000     0.706000000     0.367000000
H    -3.372000000     1.044000000     0.053000000
C    -2.075000000     1.008000000     1.745000000
C    -3.245000000     1.521000000     2.586000000
O    -4.384000000     1.736000000     2.138000000
O    -2.923000000     1.903000000     3.744000000
