14
-89.81057
C    -1.012000000     1.132000000     2.579000000
H    -0.686000000     1.323000000     3.598000000
C    -0.132000000     0.437000000     1.698000000
H     0.917000000     0.241000000     1.907000000
C    -0.547000000     0.021000000     0.434000000
H     0.063000000    -0.548000000    -0.192000000
C    -1.821000000     0.267000000    -0.027000000
H    -2.144000000    -0.079000000    -1.005000000
C    -2.681000000     0.931000000     0.829000000
H    -3.717000000     1.173000000     0.607000000
C    -2.268000000     1.404000000     2.115000000
C    -3.298000000     2.233000000     2.854000000
O    -4.509000000     2.166000000     2.651000000
O    -2.866000000     3.141000000     3.601000000
