14
-80.91868
C    -2.071000000     1.289000000    -0.438000000
H    -3.117000000     1.395000000    -0.161000000
C    -1.312000000     0.588000000     0.425000000
H    -1.814000000     0.196000000     1.306000000
C     0.004000000     0.311000000     0.128000000
H     0.646000000    -0.357000000     0.636000000
C     0.480000000     0.889000000    -1.089000000
H     1.525000000     0.773000000    -1.365000000
C    -0.337000000     1.622000000    -2.008000000
H     0.080000000     1.934000000    -2.962000000
C    -1.644000000     1.845000000    -1.674000000
C    -2.667000000     2.546000000    -2.620000000
O    -2.217000000     3.049000000    -3.648000000
O    -3.785000000     2.823000000    -2.326000000
