14
-92.13316
C    -1.317000000     1.286000000     2.263000000
H    -1.550000000     1.645000000     3.262000000
C    -0.094000000     0.595000000     2.070000000
H     0.609000000     0.504000000     2.895000000
C     0.236000000     0.072000000     0.813000000
H     1.075000000    -0.612000000     0.735000000
C    -0.724000000     0.207000000    -0.224000000
H    -0.432000000    -0.248000000    -1.167000000
C    -1.962000000     0.883000000    -0.015000000
H    -2.687000000     0.881000000    -0.825000000
C    -2.236000000     1.434000000     1.237000000
C    -3.565000000     2.083000000     1.435000000
O    -4.416000000     2.122000000     0.536000000
O    -3.808000000     2.642000000     2.508000000
