14
-88.14329
C    -1.301000000     0.949000000     1.501000000
H    -1.591000000     1.266000000     2.500000000
C    -0.093000000     0.226000000     1.338000000
H     0.489000000     0.106000000     2.249000000
C     0.243000000    -0.173000000     0.026000000
H     1.161000000    -0.783000000    -0.279000000
C    -0.634000000     0.136000000    -0.992000000
H    -0.337000000    -0.224000000    -1.974000000
C    -1.836000000     0.786000000    -0.811000000
H    -2.319000000     1.102000000    -1.732000000
C    -2.208000000     1.192000000     0.468000000
C    -3.534000000     1.927000000     0.602000000
O    -4.319000000     1.945000000    -0.340000000
O    -3.820000000     2.492000000     1.644000000
