14
-88.10188
C    -1.893000000     1.574000000     1.308000000
H    -2.204000000     2.235000000     2.114000000
C    -0.724000000     0.834000000     1.251000000
H    -0.146000000     0.718000000     2.164000000
C    -0.417000000     0.143000000     0.086000000
H     0.385000000    -0.606000000     0.133000000
C    -1.121000000     0.377000000    -1.076000000
H    -0.842000000    -0.146000000    -1.987000000
C    -2.250000000     1.198000000    -1.040000000
H    -2.822000000     1.338000000    -1.953000000
C    -2.691000000     1.772000000     0.174000000
C    -3.944000000     2.551000000     0.297000000
O    -4.413000000     3.045000000    -0.714000000
O    -4.476000000     2.855000000     1.373000000
