14
-87.84420
C    -1.821000000     0.049000000     0.856000000
H    -2.024000000    -0.039000000     1.920000000
C    -0.777000000    -0.525000000     0.176000000
H    -0.025000000    -1.083000000     0.729000000
C    -0.545000000    -0.219000000    -1.166000000
H     0.358000000    -0.466000000    -1.634000000
C    -1.403000000     0.599000000    -1.871000000
H    -1.336000000     0.734000000    -2.947000000
C    -2.524000000     1.152000000    -1.177000000
H    -3.093000000     1.874000000    -1.757000000
C    -2.748000000     0.910000000     0.127000000
C    -3.841000000     1.611000000     0.775000000
O    -4.738000000     2.156000000     0.130000000
O    -3.813000000     1.684000000     2.019000000
