14
-84.76627
C    -3.013000000     0.307000000     1.158000000
H    -3.551000000    -0.056000000     2.030000000
C    -1.854000000    -0.320000000     0.710000000
H    -1.556000000    -1.192000000     1.286000000
C    -1.194000000     0.166000000    -0.430000000
H    -0.325000000    -0.338000000    -0.818000000
C    -1.686000000     1.279000000    -1.113000000
H    -1.076000000     1.651000000    -1.932000000
C    -2.791000000     2.020000000    -0.593000000
H    -3.244000000     2.868000000    -1.101000000
C    -3.488000000     1.458000000     0.481000000
C    -4.698000000     2.115000000     1.048000000
O    -5.210000000     2.986000000     0.372000000
O    -4.919000000     1.902000000     2.173000000
