14
-87.79155
C    -2.360000000     0.127000000     1.961000000
H    -2.838000000    -0.167000000     2.892000000
C    -1.339000000    -0.630000000     1.351000000
H    -1.009000000    -1.555000000     1.816000000
C    -0.648000000    -0.207000000     0.200000000
H     0.158000000    -0.859000000    -0.098000000
C    -1.003000000     1.003000000    -0.347000000
H    -0.502000000     1.411000000    -1.222000000
C    -1.985000000     1.814000000     0.282000000
H    -2.206000000     2.815000000    -0.081000000
C    -2.649000000     1.373000000     1.469000000
C    -3.577000000     2.337000000     2.119000000
O    -3.900000000     3.369000000     1.588000000
O    -3.924000000     2.123000000     3.261000000
