14
-79.65642
C    -2.251000000     0.052000000     1.381000000
H    -2.703000000    -0.421000000     2.249000000
C    -1.076000000    -0.472000000     0.786000000
H    -0.698000000    -1.431000000     1.132000000
C    -0.281000000     0.227000000    -0.089000000
H     0.571000000    -0.130000000    -0.514000000
C    -0.734000000     1.517000000    -0.465000000
H    -0.110000000     2.042000000    -1.183000000
C    -1.980000000     1.917000000    -0.049000000
H    -2.367000000     2.893000000    -0.332000000
C    -2.718000000     1.372000000     0.970000000
C    -3.906000000     2.104000000     1.564000000
O    -4.009000000     3.311000000     1.500000000
O    -4.722000000     1.495000000     2.210000000
