14
-84.05919
C    -3.312000000     0.566000000     0.870000000
H    -4.368000000     0.318000000     0.952000000
C    -2.427000000    -0.426000000     0.371000000
H    -2.809000000    -1.405000000     0.093000000
C    -1.056000000    -0.134000000     0.186000000
H    -0.364000000    -0.798000000    -0.278000000
C    -0.599000000     1.133000000     0.364000000
H     0.392000000     1.435000000     0.034000000
C    -1.443000000     2.104000000     0.941000000
H    -1.064000000     3.104000000     1.134000000
C    -2.869000000     1.863000000     1.192000000
C    -3.849000000     2.978000000     1.514000000
O    -3.421000000     3.964000000     2.121000000
O    -5.065000000     2.680000000     1.592000000
