14
-73.26779
C    -2.772000000     1.014000000    -0.780000000
H    -3.834000000     1.111000000    -0.568000000
C    -1.975000000     0.293000000     0.127000000
H    -2.465000000    -0.140000000     0.995000000
C    -0.656000000    -0.004000000    -0.131000000
H    -0.054000000    -0.566000000     0.580000000
C    -0.030000000     0.735000000    -1.151000000
H     1.054000000     0.647000000    -1.156000000
C    -0.789000000     1.540000000    -1.939000000
H    -0.256000000     2.109000000    -2.697000000
C    -2.199000000     1.677000000    -1.861000000
C    -2.937000000     2.519000000    -2.770000000
O    -2.313000000     2.974000000    -3.666000000
O    -4.048000000     2.929000000    -2.622000000
