14
-85.61632
C    -1.573000000    -1.150000000     1.317000000
H    -1.907000000    -1.888000000     2.042000000
C    -0.299000000    -1.159000000     0.701000000
H     0.388000000    -1.990000000     0.844000000
C     0.093000000    -0.082000000    -0.148000000
H     1.109000000    -0.143000000    -0.694000000
C    -0.686000000     1.041000000    -0.263000000
H    -0.432000000     1.866000000    -0.924000000
C    -1.981000000     1.042000000     0.373000000
H    -2.626000000     1.890000000     0.161000000
C    -2.411000000    -0.037000000     1.127000000
C    -3.751000000     0.056000000     1.850000000
O    -4.429000000     1.059000000     1.755000000
O    -4.053000000    -0.722000000     2.726000000
