14
-82.99007
C    -2.055000000    -1.319000000     1.114000000
H    -2.367000000    -2.313000000     1.423000000
C    -0.713000000    -1.249000000     0.649000000
H    -0.159000000    -2.184000000     0.663000000
C    -0.081000000    -0.090000000     0.220000000
H     1.017000000    -0.046000000     0.026000000
C    -0.838000000     1.024000000     0.079000000
H    -0.442000000     1.996000000    -0.205000000
C    -2.201000000     0.950000000     0.512000000
H    -2.752000000     1.886000000     0.533000000
C    -2.862000000    -0.222000000     0.909000000
C    -4.272000000    -0.163000000     1.311000000
O    -4.837000000     0.924000000     1.143000000
O    -4.715000000    -1.021000000     2.027000000
