14
-84.61208
C    -3.496000000     0.263000000     1.061000000
H    -4.079000000    -0.615000000     1.328000000
C    -2.252000000     0.066000000     0.509000000
H    -1.849000000    -0.934000000     0.376000000
C    -1.461000000     1.161000000     0.160000000
H    -0.485000000     0.978000000    -0.362000000
C    -1.910000000     2.468000000     0.333000000
H    -1.319000000     3.332000000     0.041000000
C    -3.140000000     2.666000000     0.939000000
H    -3.463000000     3.704000000     0.942000000
C    -3.993000000     1.576000000     1.191000000
C    -5.471000000     1.792000000     1.627000000
O    -5.998000000     2.890000000     1.737000000
O    -6.165000000     0.864000000     1.954000000
