14
-90.98355
C    -2.126000000     0.037000000     1.283000000
H    -2.872000000    -0.552000000     1.811000000
C    -0.906000000    -0.448000000     0.820000000
H    -0.613000000    -1.468000000     1.056000000
C    -0.092000000     0.283000000    -0.023000000
H     0.872000000    -0.089000000    -0.370000000
C    -0.516000000     1.542000000    -0.370000000
H     0.127000000     2.173000000    -0.978000000
C    -1.769000000     2.007000000     0.001000000
H    -2.049000000     3.017000000    -0.290000000
C    -2.621000000     1.245000000     0.808000000
C    -3.926000000     1.841000000     1.387000000
O    -4.251000000     2.966000000     0.999000000
O    -4.549000000     1.300000000     2.281000000
