14
-79.29995
C    -1.726000000    -1.450000000     1.639000000
H    -2.098000000    -2.272000000     2.245000000
C    -0.465000000    -1.368000000     1.081000000
H     0.228000000    -2.127000000     1.435000000
C    -0.182000000    -0.425000000     0.102000000
H     0.753000000    -0.404000000    -0.436000000
C    -1.087000000     0.551000000    -0.191000000
H    -0.825000000     1.231000000    -0.998000000
C    -2.440000000     0.460000000     0.267000000
H    -3.279000000     1.093000000    -0.011000000
C    -2.690000000    -0.471000000     1.282000000
C    -4.023000000    -0.515000000     1.954000000
O    -4.774000000     0.408000000     1.856000000
O    -4.266000000    -1.311000000     2.846000000
