215
-1463.01802
C    -4.557000000     3.000000000     0.512000000
H    -3.891000000     3.702000000     0.016000000
C    -4.125000000     2.387000000     1.661000000
C    -4.953000000     1.339000000     2.157000000
H    -4.520000000     0.807000000     3.000000000
C    -2.833000000     2.700000000     2.352000000
O    -2.496000000     4.024000000     2.074000000
H    -2.002000000     2.101000000     1.949000000
O    -2.879000000     2.489000000     3.796000000
C    -1.702000000     1.860000000     4.225000000
C    -1.725000000     0.471000000     4.219000000
H    -2.638000000    -0.088000000     4.027000000
C    -0.561000000    -0.216000000     4.484000000
O    -0.694000000    -1.554000000     4.458000000
C     0.637000000     0.491000000     4.656000000
C     1.949000000    -0.236000000     5.085000000
H     2.516000000     0.384000000     5.783000000
C     2.748000000    -0.717000000     3.843000000
C     3.700000000     0.095000000     3.306000000
H     3.973000000     1.053000000     3.739000000
H     1.588000000    -1.080000000     5.677000000
C     0.709000000     1.881000000     4.548000000
H     1.672000000     2.377000000     4.639000000
C    -0.514000000     2.564000000     4.378000000
C    -0.420000000     4.102000000     4.115000000
H     0.278000000     4.655000000     4.747000000
H    -1.363000000     4.560000000     4.418000000
C    -0.134000000     4.334000000     2.622000000
C     1.139000000     4.517000000     2.115000000
H     1.916000000     4.566000000     2.873000000
C    -1.183000000     4.361000000     1.719000000
C    -0.941000000     4.304000000     0.326000000
H    -1.743000000     4.265000000    -0.407000000
C     0.373000000     4.431000000    -0.197000000
O     0.517000000     4.442000000    -1.551000000
C     1.076000000     3.295000000    -2.161000000
C     0.377000000     2.773000000    -3.415000000
C     1.129000000     2.074000000    -4.395000000
H     2.185000000     1.845000000    -4.273000000
C    -0.998000000     2.858000000    -3.430000000
H    -1.529000000     3.457000000    -2.694000000
O     2.466000000     3.497000000    -2.500000000
H     1.114000000     2.549000000    -1.354000000
C     1.424000000     4.589000000     0.731000000
C     2.835000000     4.846000000     0.227000000
H     3.451000000     5.295000000     1.009000000
H     2.946000000     5.553000000    -0.598000000
C     3.452000000     3.538000000    -0.256000000
C     4.144000000     2.752000000     0.720000000
H     4.154000000     3.033000000     1.770000000
C     3.368000000     2.977000000    -1.564000000
C     3.873000000     1.701000000    -1.814000000
H     3.625000000     1.271000000    -2.781000000
C     4.537000000     0.986000000    -0.850000000
O     5.012000000    -0.254000000    -1.158000000
C     4.195000000    -1.412000000    -0.828000000
C     4.095000000    -2.529000000    -1.920000000
C     4.140000000    -2.169000000    -3.291000000
H     4.332000000    -1.153000000    -3.628000000
C     3.777000000    -3.831000000    -1.502000000
H     3.663000000    -4.160000000    -0.472000000
O     4.562000000    -1.955000000     0.401000000
H     3.135000000    -1.187000000    -0.636000000
C     4.685000000     1.500000000     0.415000000
C     5.386000000     0.592000000     1.476000000
H     5.998000000     1.126000000     2.206000000
H     6.138000000    -0.029000000     0.985000000
C     4.340000000    -0.347000000     2.104000000
C     3.927000000    -1.509000000     1.526000000
C     2.896000000    -2.305000000     2.019000000
H     2.521000000    -3.161000000     1.465000000
C     2.323000000    -1.906000000     3.236000000
O     1.201000000    -2.621000000     3.593000000
C    -0.127000000    -2.089000000     3.283000000
H    -0.072000000    -1.299000000     2.520000000
C    -1.027000000    -3.213000000     2.763000000
C    -2.397000000    -3.279000000     3.098000000
H    -2.811000000    -2.644000000     3.877000000
C    -0.505000000    -4.135000000     1.814000000
H     0.557000000    -4.028000000     1.609000000
C    -1.285000000    -5.092000000     1.223000000
O    -0.824000000    -5.966000000     0.233000000
C    -2.632000000    -5.176000000     1.549000000
H    -3.233000000    -5.908000000     1.015000000
C    -3.192000000    -4.277000000     2.458000000
O    -4.498000000    -4.374000000     2.717000000
C    -5.249000000    -3.348000000     3.250000000
C    -5.661000000    -2.266000000     2.480000000
H    -5.401000000    -2.249000000     1.424000000
C    -5.464000000    -3.315000000     4.603000000
H    -5.221000000    -4.199000000     5.188000000
C    -6.085000000    -2.134000000     5.102000000
H    -6.136000000    -1.983000000     6.177000000
C    -6.531000000    -1.131000000     4.309000000
H    -7.047000000    -0.298000000     4.778000000
C    -6.384000000    -1.138000000     2.962000000
O    -6.809000000    -0.182000000     2.075000000
C    -6.205000000     1.007000000     1.622000000
C    -6.571000000     1.677000000     0.476000000
H    -7.521000000     1.426000000     0.012000000
C    -5.753000000     2.641000000    -0.123000000
O    -6.253000000     3.445000000    -1.132000000
C    -5.540000000     3.752000000    -2.273000000
C    -4.759000000     2.775000000    -2.844000000
H    -4.757000000     1.766000000    -2.438000000
C    -5.687000000     5.050000000    -2.900000000
H    -6.369000000     5.778000000    -2.468000000
C    -5.000000000     5.356000000    -4.062000000
H    -5.173000000     6.351000000    -4.465000000
C    -4.017000000     4.399000000    -4.498000000
H    -3.375000000     4.702000000    -5.321000000
C    -3.867000000     3.157000000    -3.897000000
O    -3.029000000     2.221000000    -4.471000000
C    -1.708000000     2.263000000    -4.419000000
C    -1.003000000     1.614000000    -5.468000000
H    -1.639000000     1.178000000    -6.234000000
C     0.392000000     1.577000000    -5.460000000
O     0.926000000     0.701000000    -6.412000000
C     2.214000000     0.194000000    -6.499000000
C     2.391000000    -1.139000000    -6.155000000
H     1.604000000    -1.829000000    -5.861000000
C     3.281000000     1.004000000    -6.868000000
H     3.072000000     2.046000000    -7.096000000
C     4.619000000     0.412000000    -7.056000000
H     5.391000000     1.073000000    -7.439000000
C     4.791000000    -0.945000000    -6.626000000
H     5.820000000    -1.290000000    -6.578000000
C     3.669000000    -1.635000000    -6.182000000
O     3.939000000    -2.823000000    -5.565000000
C     3.855000000    -3.125000000    -4.226000000
C     3.589000000    -4.445000000    -3.883000000
H     3.359000000    -5.173000000    -4.657000000
C     3.590000000    -4.794000000    -2.507000000
O     3.315000000    -6.143000000    -2.176000000
C     2.514000000    -6.523000000    -1.109000000
C     3.039000000    -7.466000000    -0.174000000
H     4.084000000    -7.754000000    -0.102000000
C     2.261000000    -7.868000000     0.930000000
H     2.690000000    -8.279000000     1.840000000
C     0.996000000    -7.220000000     1.119000000
H     0.581000000    -7.459000000     2.095000000
C     0.472000000    -6.407000000     0.136000000
C     1.223000000    -6.057000000    -1.014000000
H     0.827000000    -5.421000000    -1.801000000
C    -2.216000000    -1.028000000    -0.664000000
H    -3.176000000    -1.377000000    -0.294000000
C    -1.355000000    -0.414000000     0.197000000
H    -1.689000000    -0.235000000     1.216000000
C    -0.062000000    -0.009000000    -0.227000000
H     0.741000000     0.378000000     0.388000000
C     0.321000000    -0.316000000    -1.552000000
H     1.290000000    -0.033000000    -1.955000000
C    -0.618000000    -0.961000000    -2.434000000
H    -0.504000000    -1.017000000    -3.514000000
C    -1.861000000    -1.335000000    -1.943000000
C    -2.840000000    -2.062000000    -2.891000000
O    -2.403000000    -2.504000000    -3.948000000
O    -4.049000000    -2.069000000    -2.798000000
O    -5.118000000    -4.410000000    -1.948000000
H    -5.972000000    -4.439000000    -2.380000000
H    -4.666000000    -3.674000000    -2.361000000
O    -8.534000000    -1.912000000    -5.038000000
H    -8.290000000    -1.121000000    -5.519000000
H    -9.034000000    -2.431000000    -5.668000000
O    -6.694000000    -1.716000000    -1.743000000
H    -5.812000000    -1.444000000    -1.998000000
H    -6.697000000    -2.665000000    -1.870000000
O    -4.088000000    -7.210000000    -4.786000000
H    -3.424000000    -7.746000000    -5.220000000
H    -4.922000000    -7.571000000    -5.088000000
O    -7.330000000    -4.114000000    -3.425000000
H    -7.323000000    -3.431000000    -4.096000000
H    -8.010000000    -4.724000000    -3.712000000
O    -1.291000000    -4.874000000    -3.105000000
H    -1.925000000    -5.312000000    -2.537000000
H    -1.737000000    -4.077000000    -3.392000000
O    -4.583000000    -0.268000000    -4.664000000
H    -4.644000000    -0.942000000    -3.987000000
H    -3.964000000     0.371000000    -4.310000000
O    -3.769000000    -4.182000000    -5.509000000
H    -3.672000000    -5.026000000    -5.067000000
H    -3.256000000    -3.573000000    -4.979000000
O    -3.351000000    -6.437000000    -2.228000000
H    -3.797000000    -6.720000000    -3.026000000
H    -3.926000000    -5.768000000    -1.856000000
O    -3.542000000    -1.675000000    -6.928000000
H    -3.485000000    -1.103000000    -6.162000000
H    -3.326000000    -2.545000000    -6.593000000
O    -7.729000000     0.745000000    -6.435000000
H    -6.782000000     0.779000000    -6.571000000
H    -8.070000000     0.320000000    -7.222000000
O    -7.314000000     0.487000000    -3.130000000
H    -7.055000000     0.101000000    -3.967000000
H    -7.196000000    -0.219000000    -2.494000000
O     1.826000000    -5.307000000    -6.817000000
H     2.774000000    -5.306000000    -6.680000000
H     1.516000000    -4.531000000    -6.351000000
O    -5.089000000     0.620000000    -7.241000000
H    -5.031000000    -0.228000000    -7.682000000
H    -4.895000000     0.427000000    -6.324000000
O    -1.263000000    -8.482000000    -2.025000000
H    -0.441000000    -8.003000000    -2.129000000
H    -1.939000000    -7.805000000    -2.049000000
O    -5.576000000    -5.197000000    -7.317000000
H    -6.194000000    -5.366000000    -6.606000000
H    -4.776000000    -4.911000000    -6.877000000
O    -5.752000000    -6.597000000     0.141000000
H    -5.538000000    -6.516000000    -0.789000000
H    -5.878000000    -5.695000000     0.437000000
O     0.232000000    -6.494000000    -4.566000000
H    -0.190000000    -5.706000000    -4.224000000
H     0.867000000    -6.168000000    -5.204000000
O    -0.351000000    -3.572000000    -5.746000000
H    -0.842000000    -3.229000000    -5.000000000
H    -1.021000000    -3.791000000    -6.394000000
