215
-1429.13949
C    -1.805000000    -2.496000000    -3.839000000
H    -1.669000000    -1.515000000    -4.287000000
C    -2.458000000    -2.749000000    -2.664000000
C    -2.560000000    -4.087000000    -2.172000000
H    -3.090000000    -4.261000000    -1.239000000
C    -3.254000000    -1.673000000    -1.961000000
O    -3.831000000    -0.824000000    -2.970000000
H    -2.626000000    -1.076000000    -1.283000000
O    -4.382000000    -2.150000000    -1.222000000
C    -4.420000000    -1.665000000     0.017000000
C    -3.786000000    -2.313000000     1.045000000
H    -3.339000000    -3.302000000     0.980000000
C    -3.782000000    -1.740000000     2.298000000
O    -3.081000000    -2.390000000     3.257000000
C    -4.191000000    -0.444000000     2.473000000
C    -4.121000000     0.176000000     3.872000000
H    -4.888000000     0.937000000     4.032000000
C    -2.770000000     0.914000000     3.914000000
C    -2.704000000     2.282000000     3.641000000
H    -3.589000000     2.717000000     3.182000000
H    -4.098000000    -0.608000000     4.631000000
C    -4.804000000     0.221000000     1.428000000
H    -5.145000000     1.247000000     1.533000000
C    -4.928000000    -0.361000000     0.176000000
C    -5.493000000     0.470000000    -0.952000000
H    -6.224000000     1.211000000    -0.621000000
H    -5.999000000    -0.243000000    -1.605000000
C    -4.335000000     1.220000000    -1.629000000
C    -3.941000000     2.581000000    -1.339000000
H    -4.425000000     3.192000000    -0.582000000
C    -3.656000000     0.524000000    -2.661000000
C    -2.546000000     1.131000000    -3.346000000
H    -2.012000000     0.550000000    -4.093000000
C    -2.224000000     2.499000000    -3.120000000
O    -1.105000000     2.989000000    -3.766000000
C     0.174000000     3.159000000    -3.104000000
C     1.346000000     2.789000000    -3.976000000
C     2.537000000     3.380000000    -3.683000000
H     2.608000000     4.127000000    -2.896000000
C     1.230000000     1.781000000    -4.970000000
H     0.242000000     1.393000000    -5.205000000
O     0.294000000     4.447000000    -2.416000000
H     0.038000000     2.453000000    -2.271000000
C    -2.922000000     3.193000000    -2.065000000
C    -2.624000000     4.685000000    -1.739000000
H    -3.524000000     5.275000000    -1.553000000
H    -2.239000000     5.197000000    -2.623000000
C    -1.495000000     4.664000000    -0.736000000
C    -1.828000000     4.811000000     0.610000000
H    -2.855000000     4.930000000     0.947000000
C    -0.141000000     4.498000000    -1.135000000
C     0.808000000     4.376000000    -0.122000000
H     1.837000000     4.236000000    -0.445000000
C     0.457000000     4.443000000     1.259000000
O     1.438000000     4.200000000     2.199000000
C     1.563000000     2.856000000     2.688000000
C     3.001000000     2.373000000     2.813000000
C     3.862000000     2.541000000     1.805000000
H     3.524000000     3.159000000     0.977000000
C     3.278000000     1.469000000     3.826000000
H     2.635000000     1.259000000     4.676000000
O     1.042000000     2.754000000     3.988000000
H     1.056000000     2.114000000     2.054000000
C    -0.904000000     4.533000000     1.636000000
C    -1.465000000     4.411000000     3.029000000
H    -2.455000000     4.862000000     3.121000000
H    -0.888000000     5.057000000     3.694000000
C    -1.467000000     2.986000000     3.614000000
C    -0.252000000     2.257000000     4.030000000
C    -0.369000000     0.893000000     4.335000000
H     0.550000000     0.345000000     4.528000000
C    -1.585000000     0.253000000     4.350000000
O    -1.604000000    -1.126000000     4.553000000
C    -1.686000000    -2.027000000     3.467000000
H    -1.408000000    -1.351000000     2.645000000
C    -0.638000000    -3.177000000     3.424000000
C    -0.546000000    -4.151000000     2.422000000
H    -1.419000000    -4.256000000     1.784000000
C     0.329000000    -3.174000000     4.412000000
H     0.225000000    -2.483000000     5.245000000
C     1.483000000    -3.948000000     4.332000000
O     2.564000000    -3.881000000     5.159000000
C     1.591000000    -4.834000000     3.264000000
H     2.536000000    -5.354000000     3.129000000
C     0.575000000    -4.949000000     2.318000000
O     0.747000000    -5.850000000     1.369000000
C    -0.248000000    -6.514000000     0.753000000
C    -0.606000000    -6.181000000    -0.573000000
H    -0.125000000    -5.410000000    -1.169000000
C    -0.889000000    -7.596000000     1.332000000
H    -0.717000000    -7.877000000     2.368000000
C    -1.854000000    -8.319000000     0.655000000
H    -2.325000000    -9.047000000     1.311000000
C    -2.341000000    -7.890000000    -0.582000000
H    -3.225000000    -8.312000000    -1.052000000
C    -1.715000000    -6.777000000    -1.208000000
O    -2.087000000    -6.386000000    -2.463000000
C    -1.994000000    -5.082000000    -2.964000000
C    -1.334000000    -4.831000000    -4.177000000
H    -0.788000000    -5.531000000    -4.805000000
C    -1.226000000    -3.495000000    -4.613000000
O    -0.666000000    -3.288000000    -5.861000000
C    -0.299000000    -2.102000000    -6.528000000
C     0.960000000    -1.575000000    -6.285000000
H     1.525000000    -1.934000000    -5.429000000
C    -1.076000000    -1.691000000    -7.600000000
H    -1.991000000    -2.269000000    -7.705000000
C    -0.741000000    -0.536000000    -8.286000000
H    -1.396000000    -0.088000000    -9.028000000
C     0.456000000     0.145000000    -7.888000000
H     0.596000000     1.138000000    -8.308000000
C     1.241000000    -0.355000000    -6.856000000
O     2.347000000     0.417000000    -6.565000000
C     2.344000000     1.401000000    -5.630000000
C     3.587000000     1.984000000    -5.353000000
H     4.544000000     1.740000000    -5.806000000
C     3.685000000     2.946000000    -4.361000000
O     4.849000000     3.472000000    -3.940000000
C     5.186000000     3.795000000    -2.601000000
C     5.416000000     2.872000000    -1.644000000
H     5.424000000     1.799000000    -1.820000000
C     5.279000000     5.138000000    -2.292000000
H     5.164000000     5.901000000    -3.057000000
C     5.630000000     5.499000000    -1.008000000
H     5.826000000     6.563000000    -0.905000000
C     5.979000000     4.523000000    -0.023000000
H     6.258000000     4.896000000     0.959000000
C     5.786000000     3.190000000    -0.321000000
O     5.880000000     2.153000000     0.587000000
C     5.106000000     1.973000000     1.732000000
C     5.412000000     1.093000000     2.807000000
H     6.423000000     0.700000000     2.745000000
C     4.572000000     0.954000000     3.887000000
O     4.956000000     0.285000000     4.924000000
C     4.178000000    -0.604000000     5.606000000
C     3.601000000    -0.266000000     6.784000000
H     3.821000000     0.710000000     7.208000000
C     2.729000000    -1.132000000     7.481000000
H     2.290000000    -0.767000000     8.407000000
C     2.414000000    -2.372000000     7.001000000
H     1.696000000    -3.024000000     7.492000000
C     2.966000000    -2.730000000     5.756000000
C     3.714000000    -1.811000000     5.033000000
H     3.874000000    -2.097000000     3.997000000
C     1.601000000    -1.924000000     0.540000000
H     2.253000000    -2.385000000     1.278000000
C     0.610000000    -1.084000000     0.953000000
H     0.544000000    -0.864000000     2.015000000
C    -0.170000000    -0.388000000     0.041000000
H    -1.017000000     0.275000000     0.391000000
C     0.042000000    -0.634000000    -1.295000000
H    -0.571000000    -0.025000000    -1.954000000
C     1.010000000    -1.543000000    -1.781000000
H     1.096000000    -1.707000000    -2.852000000
C     1.740000000    -2.242000000    -0.837000000
C     2.806000000    -3.217000000    -1.247000000
O     2.837000000    -3.592000000    -2.387000000
O     3.623000000    -3.495000000    -0.432000000
O     4.315000000    -1.230000000    -5.251000000
H     4.140000000    -0.593000000    -5.943000000
H     3.916000000    -0.850000000    -4.468000000
O     7.678000000    -1.791000000     2.691000000
H     6.874000000    -1.690000000     2.182000000
H     8.344000000    -1.331000000     2.179000000
O     7.098000000    -5.266000000    -4.526000000
H     7.292000000    -4.823000000    -5.352000000
H     6.487000000    -4.681000000    -4.078000000
O     7.029000000    -0.038000000    -3.163000000
H     6.254000000    -0.382000000    -3.608000000
H     7.002000000    -0.438000000    -2.293000000
O     5.298000000    -3.539000000    -3.488000000
H     4.452000000    -3.714000000    -3.076000000
H     5.241000000    -2.627000000    -3.774000000
O     0.556000000    -7.153000000    -3.161000000
H    -0.279000000    -6.752000000    -2.921000000
H     0.339000000    -8.066000000    -3.350000000
O     4.980000000    -4.170000000     3.109000000
H     5.485000000    -3.491000000     2.662000000
H     4.645000000    -4.723000000     2.402000000
O     4.069000000    -0.375000000    -2.421000000
H     3.337000000     0.145000000    -2.089000000
H     4.208000000    -1.046000000    -1.753000000
O     6.705000000    -7.314000000    -2.543000000
H     6.627000000    -6.634000000    -3.213000000
H     6.488000000    -6.870000000    -1.724000000
O     2.451000000    -4.442000000    -4.754000000
H     2.474000000    -3.915000000    -3.955000000
H     2.791000000    -5.296000000    -4.486000000
O     2.636000000    -7.511000000    -4.694000000
H     3.059000000    -8.293000000    -4.338000000
H     1.916000000    -7.331000000    -4.090000000
O     7.100000000    -2.253000000    -1.457000000
H     7.856000000    -2.082000000    -2.019000000
H     6.744000000    -3.081000000    -1.780000000
O     4.150000000    -3.292000000    -6.981000000
H     3.677000000    -2.841000000    -6.282000000
H     5.040000000    -2.945000000    -6.930000000
O     6.262000000    -5.104000000    -0.615000000
H     5.325000000    -4.933000000    -0.718000000
H     6.304000000    -5.878000000    -0.053000000
O     3.846000000    -5.687000000     0.937000000
H     2.992000000    -6.066000000     0.729000000
H     3.766000000    -4.766000000     0.690000000
O     4.208000000    -8.584000000     1.666000000
H     5.104000000    -8.809000000     1.917000000
H     4.257000000    -7.667000000     1.395000000
O     3.642000000    -6.398000000    -2.056000000
H     3.333000000    -5.543000000    -2.354000000
H     2.871000000    -6.963000000    -2.103000000
O     1.420000000    -5.302000000    -7.168000000
H     1.790000000    -4.908000000    -6.378000000
H     0.933000000    -4.592000000    -7.585000000
O     5.766000000    -2.386000000     0.875000000
H     6.431000000    -2.147000000     0.229000000
H     5.100000000    -2.853000000     0.371000000
