215
-1432.78713
C    -3.266000000     3.538000000     1.002000000
H    -2.466000000     4.139000000     0.580000000
C    -2.973000000     2.751000000     2.189000000
C    -3.995000000     1.954000000     2.689000000
H    -3.816000000     1.332000000     3.563000000
C    -1.530000000     2.645000000     2.712000000
O    -0.914000000     3.927000000     2.666000000
H    -0.982000000     1.954000000     2.055000000
O    -1.430000000     2.065000000     3.992000000
C    -0.493000000     1.158000000     4.159000000
C    -0.932000000    -0.108000000     4.340000000
H    -1.980000000    -0.392000000     4.281000000
C     0.048000000    -1.069000000     4.607000000
O    -0.303000000    -2.377000000     4.563000000
C     1.424000000    -0.805000000     4.702000000
C     2.493000000    -1.941000000     4.811000000
H     3.359000000    -1.642000000     5.406000000
C     2.919000000    -2.359000000     3.409000000
C     3.938000000    -1.678000000     2.694000000
H     4.286000000    -0.742000000     3.124000000
H     2.013000000    -2.785000000     5.311000000
C     1.815000000     0.558000000     4.617000000
H     2.881000000     0.736000000     4.726000000
C     0.865000000     1.505000000     4.266000000
C     1.139000000     3.026000000     4.343000000
H     2.065000000     3.135000000     4.911000000
H     0.319000000     3.599000000     4.781000000
C     1.426000000     3.664000000     2.999000000
C     2.672000000     3.537000000     2.403000000
H     3.502000000     3.096000000     2.950000000
C     0.397000000     4.188000000     2.221000000
C     0.511000000     4.563000000     0.870000000
H    -0.305000000     4.769000000     0.182000000
C     1.786000000     4.390000000     0.292000000
O     1.856000000     4.533000000    -1.040000000
C     1.715000000     3.394000000    -1.933000000
C     0.947000000     3.830000000    -3.234000000
C     1.205000000     3.187000000    -4.418000000
H     2.063000000     2.524000000    -4.490000000
C    -0.157000000     4.658000000    -3.127000000
H    -0.467000000     4.978000000    -2.136000000
O     3.046000000     3.064000000    -2.341000000
H     1.135000000     2.573000000    -1.486000000
C     2.858000000     3.890000000     1.016000000
C     4.252000000     3.683000000     0.343000000
H     5.002000000     3.789000000     1.129000000
H     4.556000000     4.445000000    -0.377000000
C     4.285000000     2.308000000    -0.388000000
C     4.778000000     1.177000000     0.330000000
H     5.020000000     1.399000000     1.366000000
C     3.776000000     2.071000000    -1.678000000
C     3.861000000     0.781000000    -2.233000000
H     3.442000000     0.547000000    -3.209000000
C     4.436000000    -0.291000000    -1.489000000
O     4.312000000    -1.544000000    -2.094000000
C     3.214000000    -2.362000000    -1.598000000
C     2.451000000    -3.007000000    -2.678000000
C     2.055000000    -2.286000000    -3.782000000
H     2.272000000    -1.237000000    -3.966000000
C     2.039000000    -4.394000000    -2.552000000
H     2.347000000    -4.930000000    -1.658000000
O     3.756000000    -3.249000000    -0.663000000
H     2.539000000    -1.693000000    -1.044000000
C     4.847000000    -0.107000000    -0.181000000
C     5.392000000    -1.227000000     0.696000000
H     6.114000000    -0.894000000     1.444000000
H     5.981000000    -1.862000000     0.030000000
C     4.316000000    -2.046000000     1.398000000
C     3.543000000    -3.017000000     0.702000000
C     2.611000000    -3.767000000     1.366000000
H     2.061000000    -4.484000000     0.761000000
C     2.234000000    -3.420000000     2.680000000
O     1.027000000    -3.928000000     3.208000000
C    -0.177000000    -3.050000000     3.214000000
H     0.107000000    -2.283000000     2.479000000
C    -1.450000000    -3.791000000     2.778000000
C    -2.713000000    -3.471000000     3.227000000
H    -2.703000000    -2.629000000     3.914000000
C    -1.302000000    -4.854000000     1.795000000
H    -0.372000000    -5.251000000     1.397000000
C    -2.477000000    -5.455000000     1.283000000
O    -2.341000000    -6.423000000     0.290000000
C    -3.739000000    -5.114000000     1.712000000
H    -4.569000000    -5.544000000     1.157000000
C    -3.829000000    -4.079000000     2.639000000
O    -5.144000000    -3.544000000     2.893000000
C    -5.345000000    -2.342000000     3.574000000
C    -5.765000000    -1.203000000     2.870000000
H    -5.951000000    -1.218000000     1.799000000
C    -5.200000000    -2.240000000     4.954000000
H    -5.045000000    -3.092000000     5.611000000
C    -5.499000000    -1.019000000     5.629000000
H    -5.351000000    -0.850000000     6.693000000
C    -5.956000000     0.104000000     4.922000000
H    -6.109000000     1.074000000     5.388000000
C    -5.998000000    -0.026000000     3.498000000
O    -6.229000000     1.118000000     2.703000000
C    -5.197000000     1.769000000     2.025000000
C    -5.490000000     2.672000000     1.038000000
H    -6.511000000     2.685000000     0.664000000
C    -4.566000000     3.595000000     0.521000000
O    -4.855000000     4.289000000    -0.614000000
C    -4.187000000     5.321000000    -1.140000000
C    -3.341000000     5.083000000    -2.181000000
H    -3.161000000     4.080000000    -2.558000000
C    -4.537000000     6.605000000    -0.818000000
H    -5.312000000     6.783000000    -0.077000000
C    -3.927000000     7.650000000    -1.508000000
H    -4.240000000     8.674000000    -1.322000000
C    -3.069000000     7.427000000    -2.618000000
H    -2.741000000     8.230000000    -3.274000000
C    -2.779000000     6.128000000    -2.964000000
O    -2.075000000     5.833000000    -4.112000000
C    -0.941000000     4.977000000    -4.197000000
C    -0.738000000     4.259000000    -5.372000000
H    -1.458000000     4.432000000    -6.169000000
C     0.323000000     3.366000000    -5.480000000
O     0.452000000     2.623000000    -6.644000000
C     1.169000000     1.434000000    -6.694000000
C     0.572000000     0.233000000    -6.432000000
H    -0.438000000     0.253000000    -6.030000000
C     2.531000000     1.498000000    -6.917000000
H     2.951000000     2.476000000    -7.142000000
C     3.337000000     0.323000000    -6.861000000
H     4.397000000     0.276000000    -7.098000000
C     2.745000000    -0.857000000    -6.531000000
H     3.322000000    -1.776000000    -6.461000000
C     1.359000000    -0.915000000    -6.311000000
O     0.774000000    -2.087000000    -5.835000000
C     1.224000000    -2.899000000    -4.784000000
C     0.774000000    -4.246000000    -4.628000000
H     0.169000000    -4.717000000    -5.400000000
C     1.227000000    -4.953000000    -3.511000000
O     0.895000000    -6.293000000    -3.424000000
C     0.269000000    -6.859000000    -2.322000000
C     0.788000000    -8.079000000    -1.947000000
H     1.445000000    -8.575000000    -2.657000000
C     0.403000000    -8.677000000    -0.751000000
H     0.802000000    -9.605000000    -0.351000000
C    -0.460000000    -7.946000000     0.092000000
H    -0.833000000    -8.224000000     1.075000000
C    -1.138000000    -6.834000000    -0.356000000
C    -0.742000000    -6.260000000    -1.534000000
H    -1.269000000    -5.404000000    -1.946000000
C    -2.475000000    -1.349000000     0.066000000
H    -3.423000000    -1.435000000     0.591000000
C    -1.401000000    -0.654000000     0.597000000
H    -1.657000000    -0.180000000     1.541000000
C    -0.199000000    -0.483000000    -0.112000000
H     0.695000000    -0.017000000     0.350000000
C    -0.065000000    -1.055000000    -1.325000000
H     0.844000000    -0.995000000    -1.918000000
C    -1.145000000    -1.856000000    -1.845000000
H    -0.958000000    -2.360000000    -2.790000000
C    -2.291000000    -2.145000000    -1.081000000
C    -3.412000000    -2.893000000    -1.697000000
O    -3.278000000    -3.411000000    -2.789000000
O    -4.532000000    -2.685000000    -1.339000000
O    -4.829000000    -5.842000000    -1.965000000
H    -4.040000000    -6.260000000    -2.310000000
H    -4.752000000    -4.926000000    -2.234000000
O    -8.455000000    -1.620000000    -0.627000000
H    -9.333000000    -1.965000000    -0.463000000
H    -7.929000000    -2.392000000    -0.837000000
O    -6.044000000    -2.569000000    -3.503000000
H    -6.219000000    -3.345000000    -4.035000000
H    -5.384000000    -2.855000000    -2.872000000
O    -3.239000000    -8.226000000    -2.588000000
H    -2.890000000    -9.116000000    -2.537000000
H    -3.861000000    -8.170000000    -1.863000000
O    -5.181000000    -1.849000000    -7.057000000
H    -4.757000000    -2.707000000    -7.058000000
H    -6.056000000    -2.014000000    -7.407000000
O    -8.217000000    -4.409000000     2.367000000
H    -7.426000000    -4.239000000     1.855000000
H    -8.046000000    -5.245000000     2.801000000
O    -2.103000000     1.505000000    -1.942000000
H    -1.168000000     1.420000000    -2.130000000
H    -2.229000000     1.018000000    -1.128000000
O    -7.218000000     1.750000000    -1.719000000
H    -6.763000000     1.651000000    -0.883000000
H    -7.123000000     0.897000000    -2.145000000
O    -3.471000000    -4.638000000    -5.330000000
H    -2.681000000    -4.812000000    -5.842000000
H    -3.145000000    -4.294000000    -4.498000000
O    -7.033000000    -6.906000000    -1.120000000
H    -6.351000000    -6.379000000    -1.536000000
H    -6.593000000    -7.722000000    -0.883000000
O    -5.789000000    -0.280000000    -0.809000000
H    -5.075000000    -0.915000000    -0.865000000
H    -6.582000000    -0.814000000    -0.770000000
O    -3.166000000     1.276000000    -4.394000000
H    -3.169000000     0.323000000    -4.483000000
H    -3.130000000     1.428000000    -3.449000000
O    -6.428000000    -5.016000000    -4.698000000
H    -6.998000000    -5.237000000    -5.434000000
H    -5.732000000    -5.673000000    -4.728000000
O    -2.286000000    -1.029000000    -6.963000000
H    -3.241000000    -1.096000000    -6.966000000
H    -2.029000000    -1.312000000    -6.085000000
O    -3.621000000    -1.348000000    -4.553000000
H    -4.506000000    -1.523000000    -4.875000000
H    -3.435000000    -2.074000000    -3.958000000
O    -4.594000000    -8.359000000     1.101000000
H    -5.120000000    -8.905000000     0.516000000
H    -3.883000000    -8.033000000     0.550000000
O    -6.324000000    -3.976000000     0.115000000
H    -5.776000000    -3.446000000    -0.464000000
H    -6.053000000    -4.878000000    -0.057000000
O    -5.473000000     0.713000000    -6.068000000
H    -4.688000000     1.077000000    -5.659000000
H    -5.155000000    -0.037000000    -6.571000000
O    -8.139000000    -0.914000000    -3.420000000
H    -7.328000000    -1.359000000    -3.665000000
H    -8.201000000    -1.033000000    -2.473000000
