215
-1452.22005
C    -3.065000000     4.208000000     0.879000000
H    -2.273000000     4.693000000     0.313000000
C    -2.784000000     3.470000000     2.065000000
C    -3.828000000     2.847000000     2.812000000
H    -3.570000000     2.267000000     3.695000000
C    -1.282000000     3.318000000     2.424000000
O    -0.538000000     4.519000000     2.193000000
H    -0.824000000     2.525000000     1.814000000
O    -1.083000000     2.939000000     3.793000000
C    -0.170000000     1.933000000     4.028000000
C    -0.663000000     0.684000000     4.318000000
H    -1.740000000     0.549000000     4.255000000
C     0.155000000    -0.435000000     4.435000000
O    -0.349000000    -1.689000000     4.531000000
C     1.481000000    -0.223000000     4.401000000
C     2.486000000    -1.382000000     4.650000000
H     3.398000000    -1.027000000     5.135000000
C     2.771000000    -2.077000000     3.339000000
C     3.982000000    -1.705000000     2.677000000
H     4.670000000    -1.007000000     3.147000000
H     2.060000000    -2.140000000     5.311000000
C     2.033000000     1.043000000     4.178000000
H     3.112000000     1.164000000     4.232000000
C     1.194000000     2.166000000     4.070000000
C     1.739000000     3.542000000     3.890000000
H     2.690000000     3.670000000     4.413000000
H     1.129000000     4.281000000     4.414000000
C     1.859000000     3.942000000     2.437000000
C     3.002000000     3.561000000     1.750000000
H     3.803000000     3.102000000     2.323000000
C     0.757000000     4.400000000     1.673000000
C     0.972000000     4.621000000     0.277000000
H     0.164000000     4.996000000    -0.346000000
C     2.168000000     4.285000000    -0.361000000
O     2.206000000     4.280000000    -1.639000000
C     2.074000000     2.996000000    -2.333000000
C     0.970000000     3.056000000    -3.445000000
C     0.874000000     1.995000000    -4.327000000
H     1.440000000     1.071000000    -4.232000000
C     0.064000000     4.146000000    -3.508000000
H     0.076000000     5.089000000    -2.968000000
O     3.358000000     2.492000000    -2.813000000
H     1.870000000     2.151000000    -1.658000000
C     3.196000000     3.712000000     0.388000000
C     4.493000000     3.262000000    -0.257000000
H     5.348000000     3.519000000     0.372000000
H     4.758000000     3.882000000    -1.116000000
C     4.454000000     1.781000000    -0.770000000
C     4.999000000     0.731000000    -0.048000000
H     5.423000000     0.998000000     0.916000000
C     3.912000000     1.473000000    -2.029000000
C     3.900000000     0.165000000    -2.501000000
H     3.558000000    -0.102000000    -3.497000000
C     4.362000000    -0.879000000    -1.642000000
O     4.149000000    -2.185000000    -2.107000000
C     3.131000000    -2.907000000    -1.423000000
C     2.252000000    -3.735000000    -2.371000000
C     2.068000000    -3.267000000    -3.674000000
H     2.684000000    -2.460000000    -4.063000000
C     1.400000000    -4.786000000    -1.890000000
H     1.304000000    -5.118000000    -0.859000000
O     3.666000000    -3.752000000    -0.315000000
H     2.436000000    -2.163000000    -1.006000000
C     4.951000000    -0.598000000    -0.434000000
C     5.430000000    -1.706000000     0.568000000
H     6.151000000    -1.229000000     1.236000000
H     6.001000000    -2.500000000     0.083000000
C     4.257000000    -2.224000000     1.385000000
C     3.518000000    -3.319000000     0.936000000
C     2.366000000    -3.767000000     1.672000000
H     1.732000000    -4.518000000     1.207000000
C     2.029000000    -3.207000000     2.913000000
O     0.823000000    -3.481000000     3.479000000
C    -0.185000000    -2.461000000     3.264000000
H     0.028000000    -1.781000000     2.426000000
C    -1.561000000    -3.104000000     2.877000000
C    -2.765000000    -2.531000000     3.307000000
H    -2.731000000    -1.589000000     3.848000000
C    -1.651000000    -4.351000000     2.182000000
H    -0.829000000    -5.029000000     1.966000000
C    -2.881000000    -4.969000000     1.891000000
O    -3.022000000    -6.200000000     1.320000000
C    -4.030000000    -4.252000000     2.158000000
H    -4.942000000    -4.809000000     1.961000000
C    -3.969000000    -3.069000000     2.890000000
O    -5.219000000    -2.512000000     3.178000000
C    -5.449000000    -1.293000000     3.741000000
C    -5.631000000    -0.150000000     3.002000000
H    -5.385000000    -0.153000000     1.943000000
C    -5.483000000    -1.171000000     5.108000000
H    -5.347000000    -2.111000000     5.637000000
C    -5.780000000     0.021000000     5.739000000
H    -5.890000000    -0.006000000     6.821000000
C    -6.086000000     1.138000000     4.960000000
H    -6.418000000     2.093000000     5.360000000
C    -6.004000000     1.042000000     3.597000000
O    -6.158000000     2.191000000     2.841000000
C    -5.138000000     2.818000000     2.258000000
C    -5.378000000     3.556000000     1.081000000
H    -6.388000000     3.554000000     0.678000000
C    -4.349000000     4.281000000     0.443000000
O    -4.621000000     5.141000000    -0.602000000
C    -3.649000000     5.812000000    -1.406000000
C    -3.015000000     5.151000000    -2.468000000
H    -3.233000000     4.091000000    -2.575000000
C    -3.425000000     7.152000000    -1.253000000
H    -4.017000000     7.648000000    -0.488000000
C    -2.546000000     7.836000000    -2.054000000
H    -2.281000000     8.883000000    -1.924000000
C    -2.067000000     7.241000000    -3.184000000
H    -1.351000000     7.758000000    -3.816000000
C    -2.283000000     5.837000000    -3.425000000
O    -1.796000000     5.231000000    -4.563000000
C    -0.846000000     4.254000000    -4.595000000
C    -0.935000000     3.223000000    -5.463000000
H    -1.576000000     3.348000000    -6.332000000
C    -0.069000000     2.080000000    -5.399000000
O    -0.264000000     0.967000000    -6.235000000
C     0.684000000     0.014000000    -6.477000000
C     0.362000000    -1.270000000    -6.125000000
H    -0.681000000    -1.447000000    -5.875000000
C     1.844000000     0.312000000    -7.182000000
H     1.974000000     1.353000000    -7.467000000
C     2.887000000    -0.636000000    -7.281000000
H     3.781000000    -0.346000000    -7.826000000
C     2.560000000    -1.959000000    -6.910000000
H     3.331000000    -2.723000000    -6.967000000
C     1.289000000    -2.228000000    -6.318000000
O     0.973000000    -3.556000000    -5.871000000
C     1.242000000    -4.004000000    -4.572000000
C     0.551000000    -5.138000000    -4.183000000
H    -0.164000000    -5.711000000    -4.768000000
C     0.588000000    -5.442000000    -2.802000000
O    -0.203000000    -6.530000000    -2.404000000
C    -0.457000000    -6.972000000    -1.112000000
C    -0.041000000    -8.236000000    -0.680000000
H     0.571000000    -8.883000000    -1.303000000
C    -0.516000000    -8.715000000     0.498000000
H    -0.182000000    -9.643000000     0.955000000
C    -1.580000000    -8.052000000     1.108000000
H    -1.980000000    -8.571000000     1.976000000
C    -1.973000000    -6.843000000     0.676000000
C    -1.399000000    -6.212000000    -0.360000000
H    -1.929000000    -5.373000000    -0.806000000
C    -2.210000000    -1.076000000    -0.189000000
H    -3.172000000    -1.132000000     0.315000000
C    -1.112000000    -0.469000000     0.417000000
H    -1.188000000    -0.024000000     1.405000000
C     0.038000000    -0.408000000    -0.296000000
H     0.857000000     0.093000000     0.233000000
C     0.139000000    -0.887000000    -1.581000000
H     1.093000000    -0.804000000    -2.095000000
C    -1.002000000    -1.428000000    -2.226000000
H    -0.928000000    -1.781000000    -3.252000000
C    -2.194000000    -1.575000000    -1.487000000
C    -3.455000000    -2.129000000    -2.087000000
O    -3.453000000    -2.509000000    -3.247000000
O    -4.402000000    -2.415000000    -1.329000000
O    -2.839000000     0.821000000    -3.961000000
H    -3.378000000     0.961000000    -4.739000000
H    -2.598000000    -0.105000000    -4.000000000
O    -5.592000000    -5.297000000    -3.394000000
H    -6.089000000    -5.597000000    -4.155000000
H    -4.717000000    -5.114000000    -3.735000000
O    -8.004000000    -3.475000000    -0.307000000
H    -8.535000000    -4.017000000     0.277000000
H    -7.140000000    -3.887000000    -0.295000000
O    -4.380000000     1.182000000    -1.537000000
H    -3.925000000     0.999000000    -2.359000000
H    -3.679000000     1.377000000    -0.914000000
O    -8.677000000     0.549000000    -0.379000000
H    -9.498000000     0.090000000    -0.204000000
H    -8.176000000    -0.056000000    -0.925000000
O    -3.607000000    -0.755000000    -7.929000000
H    -4.454000000    -0.614000000    -8.350000000
H    -3.818000000    -1.201000000    -7.109000000
O    -5.645000000    -4.723000000    -0.915000000
H    -5.681000000    -5.129000000    -1.781000000
H    -5.019000000    -4.005000000    -1.013000000
O    -2.455000000    -7.014000000    -5.657000000
H    -1.714000000    -7.431000000    -5.217000000
H    -2.674000000    -6.266000000    -5.102000000
O    -8.499000000    -1.791000000     2.172000000
H    -8.183000000    -2.555000000     2.655000000
H    -8.224000000    -1.948000000     1.269000000
O    -4.556000000    -1.264000000    -5.373000000
H    -4.274000000    -1.804000000    -4.635000000
H    -5.401000000    -0.907000000    -5.099000000
O    -3.117000000    -4.710000000    -4.592000000
H    -3.111000000    -4.318000000    -5.465000000
H    -3.028000000    -3.967000000    -3.995000000
O    -7.506000000    -2.978000000    -4.445000000
H    -7.185000000    -3.818000000    -4.115000000
H    -6.816000000    -2.354000000    -4.223000000
O    -2.560000000    -3.825000000    -7.012000000
H    -2.862000000    -4.224000000    -7.827000000
H    -1.983000000    -3.115000000    -7.292000000
O    -6.362000000    -6.741000000     0.862000000
H    -5.979000000    -5.994000000     0.401000000
H    -7.297000000    -6.690000000     0.665000000
O    -6.954000000     2.499000000    -1.537000000
H    -6.066000000     2.331000000    -1.220000000
H    -7.491000000     1.833000000    -1.108000000
O    -1.432000000     2.163000000    -1.981000000
H    -0.715000000     1.539000000    -1.866000000
H    -1.977000000     1.778000000    -2.666000000
O    -4.435000000    -8.173000000    -3.647000000
H    -4.781000000    -7.413000000    -3.179000000
H    -4.440000000    -7.911000000    -4.568000000
O    -6.675000000     0.121000000    -4.329000000
H    -6.972000000    -0.218000000    -3.485000000
H    -6.253000000     0.954000000    -4.118000000
O    -6.868000000    -1.583000000    -2.001000000
H    -5.982000000    -1.838000000    -1.741000000
H    -7.440000000    -2.176000000    -1.515000000
