215
-1409.07583
C    -1.837000000     4.651000000     0.631000000
H    -0.997000000     4.879000000    -0.021000000
C    -1.679000000     4.056000000     1.830000000
C    -2.794000000     3.801000000     2.590000000
H    -2.771000000     3.344000000     3.576000000
C    -0.341000000     3.707000000     2.381000000
O     0.677000000     4.641000000     1.980000000
H    -0.066000000     2.757000000     1.900000000
O    -0.200000000     3.464000000     3.769000000
C     0.406000000     2.308000000     4.119000000
C    -0.434000000     1.202000000     4.358000000
H    -1.495000000     1.428000000     4.304000000
C     0.143000000    -0.048000000     4.469000000
O    -0.702000000    -1.102000000     4.458000000
C     1.523000000    -0.206000000     4.475000000
C     2.230000000    -1.615000000     4.684000000
H     3.190000000    -1.440000000     5.175000000
C     2.311000000    -2.470000000     3.472000000
C     3.499000000    -2.323000000     2.694000000
H     4.374000000    -1.739000000     2.966000000
H     1.670000000    -2.123000000     5.473000000
C     2.371000000     0.925000000     4.336000000
H     3.436000000     0.729000000     4.248000000
C     1.837000000     2.204000000     4.053000000
C     2.724000000     3.343000000     3.666000000
H     3.748000000     3.415000000     4.038000000
H     2.278000000     4.256000000     4.065000000
C     2.814000000     3.485000000     2.184000000
C     3.902000000     2.984000000     1.444000000
H     4.747000000     2.574000000     1.992000000
C     1.765000000     4.066000000     1.413000000
C     1.778000000     4.043000000     0.054000000
H     1.031000000     4.577000000    -0.528000000
C     2.869000000     3.533000000    -0.617000000
O     2.756000000     3.469000000    -1.992000000
C     2.407000000     2.213000000    -2.560000000
C     1.472000000     2.501000000    -3.779000000
C     1.178000000     1.422000000    -4.600000000
H     1.605000000     0.435000000    -4.439000000
C     0.767000000     3.695000000    -3.861000000
H     0.970000000     4.424000000    -3.081000000
O     3.540000000     1.400000000    -2.931000000
H     1.669000000     1.645000000    -1.975000000
C     3.898000000     2.921000000     0.073000000
C     5.003000000     2.206000000    -0.662000000
H     5.912000000     2.250000000    -0.058000000
H     5.188000000     2.717000000    -1.610000000
C     4.778000000     0.754000000    -1.052000000
C     5.034000000    -0.277000000    -0.097000000
H     5.614000000    -0.075000000     0.800000000
C     4.061000000     0.398000000    -2.197000000
C     3.721000000    -0.848000000    -2.483000000
H     3.183000000    -0.986000000    -3.417000000
C     3.982000000    -1.881000000    -1.587000000
O     3.455000000    -3.117000000    -1.898000000
C     2.266000000    -3.591000000    -1.272000000
C     1.184000000    -4.242000000    -2.189000000
C     1.298000000    -4.065000000    -3.529000000
H     2.130000000    -3.466000000    -3.889000000
C     0.126000000    -4.935000000    -1.689000000
H     0.033000000    -5.143000000    -0.626000000
O     2.735000000    -4.425000000    -0.187000000
H     1.801000000    -2.701000000    -0.823000000
C     4.585000000    -1.614000000    -0.328000000
C     4.833000000    -2.723000000     0.692000000
H     5.657000000    -2.371000000     1.316000000
H     5.171000000    -3.648000000     0.219000000
C     3.587000000    -2.993000000     1.515000000
C     2.614000000    -3.895000000     1.107000000
C     1.425000000    -3.970000000     1.788000000
H     0.626000000    -4.548000000     1.332000000
C     1.285000000    -3.233000000     2.984000000
O     0.022000000    -3.240000000     3.557000000
C    -0.777000000    -2.026000000     3.320000000
H    -0.318000000    -1.543000000     2.445000000
C    -2.205000000    -2.352000000     2.947000000
C    -3.264000000    -1.401000000     3.227000000
H    -3.055000000    -0.508000000     3.810000000
C    -2.586000000    -3.507000000     2.255000000
H    -1.805000000    -4.226000000     2.020000000
C    -3.930000000    -3.836000000     2.104000000
O    -4.302000000    -5.105000000     1.801000000
C    -4.885000000    -2.896000000     2.351000000
H    -5.903000000    -3.192000000     2.112000000
C    -4.572000000    -1.743000000     2.937000000
O    -5.563000000    -0.917000000     3.314000000
C    -5.489000000     0.297000000     3.992000000
C    -5.171000000     1.451000000     3.239000000
H    -4.817000000     1.287000000     2.225000000
C    -5.694000000     0.389000000     5.342000000
H    -5.945000000    -0.509000000     5.901000000
C    -5.655000000     1.630000000     5.998000000
H    -5.753000000     1.670000000     7.080000000
C    -5.400000000     2.793000000     5.229000000
H    -5.357000000     3.782000000     5.678000000
C    -5.200000000     2.678000000     3.857000000
O    -5.130000000     3.881000000     3.130000000
C    -4.081000000     4.173000000     2.262000000
C    -4.224000000     4.705000000     0.995000000
H    -5.195000000     5.046000000     0.644000000
C    -3.132000000     4.923000000     0.228000000
O    -3.306000000     5.276000000    -1.116000000
C    -2.457000000     6.045000000    -1.963000000
C    -2.223000000     5.446000000    -3.210000000
H    -2.771000000     4.533000000    -3.432000000
C    -1.720000000     7.144000000    -1.523000000
H    -1.995000000     7.650000000    -0.602000000
C    -0.681000000     7.597000000    -2.357000000
H    -0.098000000     8.492000000    -2.155000000
C    -0.388000000     6.929000000    -3.524000000
H     0.609000000     7.056000000    -3.938000000
C    -1.127000000     5.783000000    -3.920000000
O    -0.839000000     5.003000000    -5.011000000
C    -0.138000000     3.858000000    -4.900000000
C    -0.450000000     2.781000000    -5.763000000
H    -1.232000000     2.933000000    -6.502000000
C     0.255000000     1.610000000    -5.651000000
O     0.038000000     0.553000000    -6.475000000
C     0.693000000    -0.586000000    -6.526000000
C     0.131000000    -1.770000000    -6.137000000
H    -0.884000000    -1.853000000    -5.755000000
C     2.049000000    -0.550000000    -6.930000000
H     2.548000000     0.363000000    -7.245000000
C     2.772000000    -1.748000000    -7.046000000
H     3.713000000    -1.805000000    -7.588000000
C     2.146000000    -2.960000000    -6.750000000
H     2.684000000    -3.901000000    -6.831000000
C     0.863000000    -2.944000000    -6.195000000
O     0.362000000    -4.208000000    -5.668000000
C     0.269000000    -4.419000000    -4.364000000
C    -0.696000000    -5.309000000    -3.872000000
H    -1.433000000    -5.648000000    -4.595000000
C    -0.861000000    -5.533000000    -2.484000000
O    -1.898000000    -6.366000000    -2.012000000
C    -2.247000000    -6.622000000    -0.714000000
C    -2.136000000    -7.957000000    -0.274000000
H    -1.782000000    -8.735000000    -0.946000000
C    -2.558000000    -8.260000000     1.041000000
H    -2.519000000    -9.300000000     1.355000000
C    -3.337000000    -7.292000000     1.738000000
H    -3.828000000    -7.515000000     2.681000000
C    -3.487000000    -5.985000000     1.192000000
C    -3.042000000    -5.727000000    -0.048000000
H    -3.173000000    -4.778000000    -0.562000000
C    -2.605000000     0.047000000    -0.238000000
H    -3.472000000     0.372000000     0.331000000
C    -1.412000000     0.053000000     0.445000000
H    -1.341000000     0.327000000     1.495000000
C    -0.234000000    -0.261000000    -0.167000000
H     0.692000000    -0.341000000     0.384000000
C    -0.235000000    -0.673000000    -1.524000000
H     0.679000000    -0.991000000    -2.020000000
C    -1.439000000    -0.661000000    -2.232000000
H    -1.462000000    -1.069000000    -3.240000000
C    -2.642000000    -0.327000000    -1.605000000
C    -3.960000000    -0.294000000    -2.305000000
O    -4.113000000    -1.077000000    -3.217000000
O    -4.918000000     0.262000000    -1.795000000
O    -3.955000000    -3.763000000    -7.028000000
H    -3.290000000    -3.912000000    -7.700000000
H    -4.772000000    -3.667000000    -7.517000000
O    -6.837000000    -0.822000000    -3.406000000
H    -5.881000000    -0.766000000    -3.390000000
H    -7.022000000    -1.607000000    -3.921000000
O    -8.529000000     0.940000000    -2.101000000
H    -8.192000000     0.355000000    -2.779000000
H    -7.997000000     0.744000000    -1.329000000
O    -7.130000000     2.285000000    -5.760000000
H    -7.355000000     2.659000000    -4.908000000
H    -6.288000000     1.853000000    -5.617000000
O    -7.915000000     3.802000000    -3.512000000
H    -7.639000000     4.701000000    -3.693000000
H    -8.493000000     3.878000000    -2.753000000
O    -9.419000000    -1.969000000    -0.015000000
H    -8.639000000    -1.552000000    -0.382000000
H    -9.090000000    -2.486000000     0.721000000
O    -6.942000000     0.083000000     0.066000000
H    -6.526000000     0.207000000     0.919000000
H    -6.211000000    -0.005000000    -0.546000000
O    -6.540000000    -3.097000000    -4.923000000
H    -5.777000000    -3.664000000    -5.030000000
H    -6.974000000    -3.115000000    -5.776000000
O    -5.116000000    -0.170000000    -8.519000000
H    -4.653000000    -0.295000000    -7.691000000
H    -4.457000000    -0.345000000    -9.191000000
O    -6.377000000     6.056000000    -1.498000000
H    -6.003000000     5.193000000    -1.674000000
H    -6.704000000     6.352000000    -2.348000000
O    -5.195000000     5.441000000    -5.567000000
H    -4.863000000     4.657000000    -5.130000000
H    -5.286000000     6.086000000    -4.866000000
O    -3.304000000    -3.337000000    -2.546000000
H    -3.523000000    -2.508000000    -2.971000000
H    -2.736000000    -3.090000000    -1.816000000
O    -4.014000000    -0.885000000    -6.156000000
H    -4.012000000    -1.581000000    -6.814000000
H    -3.918000000    -1.345000000    -5.321000000
O    -4.202000000    -5.241000000    -4.759000000
H    -3.911000000    -4.655000000    -5.458000000
H    -3.598000000    -5.069000000    -4.036000000
O    -6.417000000    -4.041000000    -1.859000000
H    -6.598000000    -3.151000000    -2.161000000
H    -5.525000000    -4.218000000    -2.156000000
O    -7.236000000    -6.109000000    -3.754000000
H    -7.065000000    -5.308000000    -3.258000000
H    -6.556000000    -6.718000000    -3.466000000
O    -4.453000000     1.519000000    -4.933000000
H    -4.128000000     0.724000000    -5.355000000
H    -4.814000000     1.217000000    -4.100000000
O    -7.781000000     0.041000000    -7.337000000
H    -6.920000000    -0.008000000    -7.751000000
H    -7.680000000     0.700000000    -6.650000000
O    -5.550000000     2.819000000    -2.198000000
H    -5.317000000     1.909000000    -2.012000000
H    -6.319000000     2.759000000    -2.764000000
