215
-1440.66672
C    -1.831000000     5.149000000     0.986000000
H    -0.981000000     5.316000000     0.329000000
C    -1.628000000     4.421000000     2.228000000
C    -2.706000000     4.084000000     3.047000000
H    -2.657000000     3.350000000     3.847000000
C    -0.213000000     3.794000000     2.591000000
O     0.927000000     4.659000000     2.231000000
H    -0.249000000     2.935000000     1.905000000
O    -0.093000000     3.250000000     3.885000000
C     0.516000000     2.063000000     4.055000000
C    -0.346000000     0.966000000     4.306000000
H    -1.430000000     1.041000000     4.280000000
C     0.117000000    -0.298000000     4.642000000
O    -0.920000000    -1.237000000     4.676000000
C     1.572000000    -0.484000000     4.671000000
C     2.148000000    -1.843000000     4.905000000
H     3.137000000    -1.807000000     5.366000000
C     2.154000000    -2.546000000     3.513000000
C     3.317000000    -2.516000000     2.737000000
H     4.165000000    -1.935000000     3.090000000
H     1.469000000    -2.361000000     5.586000000
C     2.402000000     0.606000000     4.548000000
H     3.473000000     0.473000000     4.676000000
C     1.876000000     1.862000000     4.240000000
C     2.803000000     3.011000000     3.985000000
H     3.755000000     2.828000000     4.487000000
H     2.324000000     3.904000000     4.391000000
C     2.984000000     3.260000000     2.423000000
C     4.078000000     2.696000000     1.753000000
H     4.885000000     2.364000000     2.402000000
C     2.044000000     3.979000000     1.696000000
C     2.169000000     4.055000000     0.363000000
H     1.546000000     4.717000000    -0.233000000
C     3.128000000     3.309000000    -0.335000000
O     3.059000000     3.326000000    -1.720000000
C     2.640000000     2.027000000    -2.350000000
C     1.708000000     2.248000000    -3.454000000
C     1.935000000     1.741000000    -4.756000000
H     2.829000000     1.146000000    -4.923000000
C     0.487000000     2.838000000    -3.206000000
H     0.283000000     3.293000000    -2.240000000
O     3.848000000     1.466000000    -2.838000000
H     2.077000000     1.383000000    -1.659000000
C     4.108000000     2.589000000     0.392000000
C     5.247000000     1.893000000    -0.271000000
H     6.131000000     1.793000000     0.362000000
H     5.548000000     2.560000000    -1.081000000
C     4.785000000     0.571000000    -0.806000000
C     4.953000000    -0.535000000     0.011000000
H     5.367000000    -0.490000000     1.015000000
C     4.282000000     0.375000000    -2.105000000
C     3.826000000    -0.898000000    -2.521000000
H     3.391000000    -0.940000000    -3.516000000
C     3.989000000    -2.008000000    -1.669000000
O     3.268000000    -3.189000000    -2.025000000
C     2.009000000    -3.312000000    -1.342000000
C     0.951000000    -3.824000000    -2.295000000
C     0.980000000    -3.380000000    -3.644000000
H     1.651000000    -2.589000000    -3.970000000
C    -0.139000000    -4.696000000    -1.936000000
H    -0.222000000    -5.076000000    -0.921000000
O     2.135000000    -4.216000000    -0.230000000
H     1.738000000    -2.375000000    -0.833000000
C     4.513000000    -1.804000000    -0.346000000
C     4.605000000    -2.921000000     0.666000000
H     5.507000000    -2.864000000     1.279000000
H     4.799000000    -3.884000000     0.190000000
C     3.390000000    -3.102000000     1.506000000
C     2.225000000    -3.701000000     0.997000000
C     1.045000000    -3.722000000     1.795000000
H     0.087000000    -4.087000000     1.434000000
C     1.027000000    -3.204000000     3.090000000
O    -0.186000000    -3.161000000     3.751000000
C    -1.023000000    -2.014000000     3.495000000
H    -0.612000000    -1.580000000     2.571000000
C    -2.421000000    -2.397000000     3.111000000
C    -3.434000000    -1.407000000     3.054000000
H    -3.138000000    -0.395000000     3.320000000
C    -2.736000000    -3.700000000     2.724000000
H    -2.020000000    -4.510000000     2.835000000
C    -4.000000000    -3.976000000     2.177000000
O    -4.208000000    -5.198000000     1.618000000
C    -5.052000000    -3.065000000     2.198000000
H    -6.017000000    -3.316000000     1.764000000
C    -4.739000000    -1.778000000     2.671000000
O    -5.692000000    -0.743000000     2.648000000
C    -5.636000000     0.435000000     3.429000000
C    -5.343000000     1.746000000     2.857000000
H    -5.308000000     1.889000000     1.780000000
C    -6.039000000     0.355000000     4.765000000
H    -6.284000000    -0.619000000     5.180000000
C    -6.134000000     1.443000000     5.583000000
H    -6.518000000     1.355000000     6.596000000
C    -5.811000000     2.677000000     5.047000000
H    -5.675000000     3.561000000     5.665000000
C    -5.398000000     2.814000000     3.759000000
O    -5.121000000     4.064000000     3.248000000
C    -3.992000000     4.472000000     2.601000000
C    -4.175000000     5.183000000     1.432000000
H    -5.188000000     5.426000000     1.122000000
C    -3.120000000     5.563000000     0.613000000
O    -3.308000000     6.307000000    -0.456000000
C    -2.454000000     6.242000000    -1.549000000
C    -2.431000000     5.101000000    -2.332000000
H    -3.123000000     4.316000000    -2.040000000
C    -1.618000000     7.287000000    -1.878000000
H    -1.543000000     8.240000000    -1.361000000
C    -0.666000000     7.146000000    -2.869000000
H    -0.035000000     7.997000000    -3.111000000
C    -0.580000000     5.926000000    -3.576000000
H     0.248000000     5.751000000    -4.259000000
C    -1.489000000     4.910000000    -3.280000000
O    -1.561000000     3.751000000    -3.994000000
C    -0.394000000     3.006000000    -4.195000000
C    -0.157000000     2.578000000    -5.497000000
H    -0.902000000     2.694000000    -6.280000000
C     1.037000000     1.943000000    -5.818000000
O     1.181000000     1.186000000    -6.974000000
C     1.500000000    -0.167000000    -7.011000000
C     0.586000000    -1.078000000    -6.320000000
H    -0.300000000    -0.701000000    -5.814000000
C     2.566000000    -0.706000000    -7.766000000
H     3.157000000    -0.018000000    -8.365000000
C     2.813000000    -2.092000000    -7.775000000
H     3.633000000    -2.537000000    -8.332000000
C     2.007000000    -2.923000000    -7.024000000
H     2.118000000    -4.004000000    -6.985000000
C     0.911000000    -2.410000000    -6.405000000
O     0.024000000    -3.285000000    -5.865000000
C    -0.028000000    -3.666000000    -4.554000000
C    -1.050000000    -4.562000000    -4.204000000
H    -1.812000000    -4.818000000    -4.936000000
C    -1.106000000    -5.074000000    -2.927000000
O    -2.026000000    -5.998000000    -2.626000000
C    -2.287000000    -6.393000000    -1.323000000
C    -1.708000000    -7.535000000    -0.758000000
H    -0.936000000    -7.999000000    -1.367000000
C    -1.904000000    -7.849000000     0.625000000
H    -1.473000000    -8.712000000     1.127000000
C    -2.765000000    -7.008000000     1.386000000
H    -3.015000000    -7.237000000     2.419000000
C    -3.324000000    -5.904000000     0.823000000
C    -3.135000000    -5.603000000    -0.555000000
H    -3.606000000    -4.738000000    -1.017000000
C    -2.598000000    -0.338000000    -0.293000000
H    -3.604000000    -0.281000000     0.114000000
C    -1.493000000     0.029000000     0.421000000
H    -1.578000000     0.343000000     1.458000000
C    -0.192000000    -0.056000000    -0.127000000
H     0.706000000     0.090000000     0.572000000
C    -0.059000000    -0.565000000    -1.426000000
H     0.946000000    -0.690000000    -1.821000000
C    -1.172000000    -0.770000000    -2.207000000
H    -1.119000000    -1.134000000    -3.229000000
C    -2.383000000    -0.702000000    -1.672000000
C    -3.677000000    -0.929000000    -2.461000000
O    -3.539000000    -1.507000000    -3.531000000
O    -4.804000000    -0.837000000    -1.952000000
O    -8.343000000     0.883000000    -5.901000000
H    -8.716000000     1.748000000    -5.728000000
H    -7.864000000     0.665000000    -5.102000000
O    -4.266000000    -4.588000000    -7.197000000
H    -3.889000000    -4.634000000    -8.076000000
H    -4.599000000    -3.693000000    -7.126000000
O    -6.618000000     0.697000000    -3.648000000
H    -5.775000000     0.945000000    -3.270000000
H    -6.507000000    -0.220000000    -3.899000000
O    -8.901000000     1.298000000    -2.060000000
H    -8.051000000     1.377000000    -2.493000000
H    -9.248000000     0.460000000    -2.364000000
O    -6.697000000     3.600000000    -4.444000000
H    -6.259000000     2.758000000    -4.322000000
H    -6.050000000     4.249000000    -4.167000000
O    -6.443000000    -2.314000000    -7.342000000
H    -5.770000000    -1.795000000    -7.782000000
H    -7.267000000    -1.894000000    -7.587000000
O    -6.950000000    -5.261000000    -0.061000000
H    -7.191000000    -6.041000000     0.440000000
H    -6.406000000    -5.594000000    -0.775000000
O    -6.919000000    -1.877000000    -4.531000000
H    -6.362000000    -2.638000000    -4.367000000
H    -7.017000000    -1.853000000    -5.483000000
O    -1.917000000     0.897000000    -7.689000000
H    -2.461000000     0.400000000    -7.078000000
H    -2.525000000     1.498000000    -8.118000000
O    -6.496000000    -5.084000000    -5.604000000
H    -5.741000000    -4.589000000    -5.921000000
H    -7.254000000    -4.612000000    -5.949000000
O    -3.971000000    -3.904000000    -4.253000000
H    -3.623000000    -3.942000000    -5.144000000
H    -3.710000000    -3.042000000    -3.931000000
O    -3.164000000    -0.673000000    -5.968000000
H    -3.888000000    -1.085000000    -6.440000000
H    -3.330000000    -0.880000000    -5.048000000
O    -5.837000000    -5.444000000    -2.792000000
H    -6.270000000    -5.790000000    -3.572000000
H    -5.001000000    -5.104000000    -3.112000000
O    -7.212000000     3.101000000    -0.114000000
H    -6.371000000     2.749000000    -0.405000000
H    -7.861000000     2.645000000    -0.650000000
O    -6.739000000    -2.432000000    -0.457000000
H    -6.506000000    -3.355000000    -0.358000000
H    -5.973000000    -2.034000000    -0.869000000
O    -8.634000000    -1.746000000    -2.375000000
H    -8.007000000    -1.932000000    -1.677000000
H    -8.092000000    -1.489000000    -3.121000000
O    -3.908000000     1.956000000    -3.741000000
H    -3.535000000     2.464000000    -4.462000000
H    -3.725000000     1.045000000    -3.971000000
O    -4.973000000     1.761000000    -7.302000000
H    -4.458000000     2.555000000    -7.156000000
H    -5.776000000     2.070000000    -7.720000000
O    -4.990000000     1.613000000    -1.160000000
H    -4.768000000     0.686000000    -1.240000000
H    -4.509000000     2.037000000    -1.870000000
