215
-1436.62713
C    -2.957000000     4.033000000     1.543000000
H    -2.174000000     4.312000000     0.842000000
C    -2.593000000     3.495000000     2.790000000
C    -3.571000000     2.823000000     3.554000000
H    -3.304000000     2.205000000     4.407000000
C    -1.075000000     3.076000000     2.925000000
O    -0.255000000     4.229000000     2.695000000
H    -0.923000000     2.352000000     2.110000000
O    -0.819000000     2.530000000     4.231000000
C     0.095000000     1.521000000     4.541000000
C    -0.379000000     0.206000000     4.664000000
H    -1.444000000     0.000000000     4.592000000
C     0.511000000    -0.848000000     4.684000000
O    -0.074000000    -2.095000000     4.617000000
C     1.843000000    -0.622000000     4.500000000
C     2.898000000    -1.781000000     4.428000000
H     3.814000000    -1.391000000     4.877000000
C     3.139000000    -2.356000000     3.016000000
C     4.225000000    -1.835000000     2.249000000
H     4.865000000    -1.065000000     2.673000000
H     2.481000000    -2.614000000     4.997000000
C     2.357000000     0.674000000     4.240000000
H     3.417000000     0.823000000     4.053000000
C     1.454000000     1.766000000     4.353000000
C     1.994000000     3.149000000     4.146000000
H     2.992000000     3.135000000     4.589000000
H     1.407000000     3.838000000     4.756000000
C     2.006000000     3.518000000     2.698000000
C     3.184000000     3.234000000     1.952000000
H     4.047000000     2.843000000     2.486000000
C     0.928000000     4.095000000     2.071000000
C     0.984000000     4.388000000     0.707000000
H     0.137000000     4.881000000     0.235000000
C     2.083000000     4.052000000    -0.036000000
O     2.083000000     4.286000000    -1.387000000
C     1.934000000     3.086000000    -2.171000000
C     0.982000000     3.316000000    -3.407000000
C     1.130000000     2.471000000    -4.541000000
H     1.828000000     1.650000000    -4.679000000
C    -0.109000000     4.204000000    -3.297000000
H    -0.313000000     4.777000000    -2.396000000
O     3.255000000     2.653000000    -2.686000000
H     1.371000000     2.381000000    -1.541000000
C     3.273000000     3.611000000     0.591000000
C     4.555000000     3.391000000    -0.181000000
H     5.451000000     3.391000000     0.444000000
H     4.809000000     4.083000000    -0.987000000
C     4.487000000     1.939000000    -0.833000000
C     5.090000000     0.803000000    -0.263000000
H     5.717000000     1.034000000     0.595000000
C     3.890000000     1.734000000    -2.070000000
C     3.832000000     0.532000000    -2.691000000
H     3.375000000     0.399000000    -3.668000000
C     4.110000000    -0.607000000    -1.972000000
O     3.869000000    -1.834000000    -2.606000000
C     2.783000000    -2.564000000    -1.908000000
C     1.819000000    -3.344000000    -2.821000000
C     1.765000000    -2.985000000    -4.146000000
H     2.504000000    -2.261000000    -4.480000000
C     0.979000000    -4.306000000    -2.355000000
H     1.039000000    -4.671000000    -1.333000000
O     3.413000000    -3.477000000    -0.915000000
H     2.174000000    -1.862000000    -1.321000000
C     4.850000000    -0.460000000    -0.758000000
C     5.354000000    -1.579000000    -0.003000000
H     6.207000000    -1.362000000     0.644000000
H     5.634000000    -2.419000000    -0.643000000
C     4.370000000    -2.290000000     0.917000000
C     3.409000000    -3.176000000     0.372000000
C     2.363000000    -3.669000000     1.121000000
H     1.606000000    -4.289000000     0.647000000
C     2.209000000    -3.300000000     2.468000000
O     1.025000000    -3.701000000     3.206000000
C    -0.151000000    -2.828000000     3.332000000
H    -0.155000000    -2.138000000     2.475000000
C    -1.501000000    -3.540000000     3.264000000
C    -2.666000000    -2.723000000     3.329000000
H    -2.596000000    -1.728000000     3.761000000
C    -1.589000000    -4.854000000     2.737000000
H    -0.688000000    -5.451000000     2.618000000
C    -2.787000000    -5.307000000     2.261000000
O    -2.771000000    -6.578000000     1.745000000
C    -3.917000000    -4.488000000     2.236000000
H    -4.837000000    -4.742000000     1.716000000
C    -3.853000000    -3.216000000     2.748000000
O    -4.818000000    -2.300000000     2.326000000
C    -5.285000000    -1.372000000     3.244000000
C    -5.382000000     0.030000000     2.961000000
H    -5.204000000     0.387000000     1.950000000
C    -5.601000000    -1.796000000     4.494000000
H    -5.509000000    -2.844000000     4.765000000
C    -6.092000000    -0.911000000     5.483000000
H    -6.434000000    -1.318000000     6.431000000
C    -6.164000000     0.431000000     5.196000000
H    -6.471000000     1.199000000     5.900000000
C    -5.731000000     0.908000000     4.009000000
O    -5.907000000     2.244000000     3.782000000
C    -4.920000000     2.947000000     3.149000000
C    -5.299000000     3.720000000     2.050000000
H    -6.355000000     3.795000000     1.803000000
C    -4.296000000     4.159000000     1.198000000
O    -4.703000000     4.606000000    -0.085000000
C    -3.872000000     5.327000000    -0.892000000
C    -3.377000000     4.807000000    -2.116000000
H    -3.750000000     3.820000000    -2.377000000
C    -3.529000000     6.614000000    -0.486000000
H    -3.986000000     6.997000000     0.423000000
C    -2.749000000     7.436000000    -1.266000000
H    -2.495000000     8.453000000    -0.978000000
C    -2.260000000     6.912000000    -2.477000000
H    -1.710000000     7.616000000    -3.097000000
C    -2.590000000     5.644000000    -2.912000000
O    -2.173000000     5.087000000    -4.169000000
C    -1.031000000     4.371000000    -4.308000000
C    -0.817000000     3.646000000    -5.435000000
H    -1.520000000     3.833000000    -6.242000000
C     0.270000000     2.703000000    -5.545000000
O     0.360000000     2.002000000    -6.718000000
C     0.974000000     0.836000000    -6.868000000
C     0.398000000    -0.342000000    -6.321000000
H    -0.553000000    -0.290000000    -5.796000000
C     2.197000000     0.708000000    -7.557000000
H     2.683000000     1.614000000    -7.912000000
C     2.781000000    -0.596000000    -7.844000000
H     3.739000000    -0.635000000    -8.355000000
C     2.273000000    -1.698000000    -7.243000000
H     2.797000000    -2.641000000    -7.378000000
C     1.023000000    -1.591000000    -6.577000000
O     0.376000000    -2.809000000    -6.154000000
C     0.702000000    -3.365000000    -4.903000000
C    -0.245000000    -4.196000000    -4.411000000
H    -1.058000000    -4.506000000    -5.061000000
C    -0.071000000    -4.730000000    -3.133000000
O    -1.019000000    -5.607000000    -2.666000000
C    -1.072000000    -6.355000000    -1.572000000
C    -0.205000000    -7.449000000    -1.436000000
H     0.600000000    -7.594000000    -2.152000000
C    -0.287000000    -8.302000000    -0.349000000
H     0.337000000    -9.187000000    -0.258000000
C    -1.144000000    -7.998000000     0.661000000
H    -1.150000000    -8.716000000     1.478000000
C    -1.957000000    -6.887000000     0.582000000
C    -1.986000000    -6.110000000    -0.534000000
H    -2.644000000    -5.250000000    -0.635000000
C    -2.187000000    -1.727000000    -0.317000000
H    -3.015000000    -1.963000000     0.346000000
C    -1.150000000    -1.126000000     0.331000000
H    -1.248000000    -0.799000000     1.363000000
C     0.017000000    -0.723000000    -0.438000000
H     0.809000000    -0.277000000     0.206000000
C    -0.006000000    -0.862000000    -1.828000000
H     0.823000000    -0.566000000    -2.466000000
C    -1.075000000    -1.435000000    -2.455000000
H    -1.111000000    -1.539000000    -3.536000000
C    -2.164000000    -1.929000000    -1.716000000
C    -3.331000000    -2.657000000    -2.342000000
O    -3.373000000    -2.821000000    -3.555000000
O    -4.309000000    -2.955000000    -1.652000000
O    -3.287000000     0.977000000    -2.922000000
H    -3.776000000     1.361000000    -3.651000000
H    -3.203000000     0.052000000    -3.151000000
O    -5.686000000    -4.803000000    -3.242000000
H    -5.374000000    -5.277000000    -4.012000000
H    -4.898000000    -4.416000000    -2.862000000
O    -8.505000000     0.637000000    -2.968000000
H    -8.668000000     0.400000000    -2.055000000
H    -7.724000000     0.141000000    -3.209000000
O    -4.284000000     1.386000000    -0.408000000
H    -3.695000000     1.821000000     0.209000000
H    -3.885000000     1.534000000    -1.265000000
O    -7.834000000    -0.109000000     0.963000000
H    -7.193000000    -0.715000000     0.593000000
H    -8.552000000    -0.669000000     1.258000000
O    -5.259000000    -8.660000000    -1.322000000
H    -6.208000000    -8.783000000    -1.305000000
H    -5.090000000    -8.220000000    -2.155000000
O    -6.983000000    -3.410000000    -0.889000000
H    -6.282000000    -3.843000000    -1.377000000
H    -6.598000000    -2.582000000    -0.602000000
O    -7.580000000    -3.278000000    -4.102000000
H    -6.830000000    -3.860000000    -3.977000000
H    -8.293000000    -3.702000000    -3.624000000
O    -3.511000000    -1.133000000    -7.512000000
H    -3.616000000    -0.404000000    -6.901000000
H    -4.336000000    -1.160000000    -7.997000000
O    -4.940000000     1.021000000    -5.934000000
H    -5.667000000     0.489000000    -6.257000000
H    -5.338000000     1.865000000    -5.721000000
O    -6.620000000    -6.186000000    -5.747000000
H    -6.986000000    -6.840000000    -6.343000000
H    -6.698000000    -5.359000000    -6.223000000
O    -4.005000000    -4.405000000    -5.427000000
H    -4.639000000    -3.929000000    -5.964000000
H    -3.645000000    -3.742000000    -4.838000000
O    -6.225000000    -0.949000000    -3.464000000
H    -6.577000000    -1.774000000    -3.801000000
H    -5.801000000    -1.189000000    -2.640000000
O    -6.998000000    -5.589000000     0.603000000
H    -6.933000000    -4.926000000    -0.085000000
H    -7.711000000    -6.161000000     0.316000000
O    -6.976000000     2.071000000    -0.526000000
H    -6.030000000     1.992000000    -0.404000000
H    -7.320000000     1.207000000    -0.297000000
O    -1.121000000     2.003000000    -1.304000000
H    -1.897000000     2.054000000    -1.861000000
H    -0.710000000     1.172000000    -1.541000000
O    -3.404000000    -6.486000000    -3.629000000
H    -2.545000000    -6.317000000    -3.242000000
H    -3.447000000    -5.898000000    -4.383000000
O    -2.454000000    -6.140000000    -6.875000000
H    -2.832000000    -5.348000000    -6.493000000
H    -3.211000000    -6.678000000    -7.109000000
O    -5.770000000    -0.874000000    -0.770000000
H    -5.206000000    -1.638000000    -0.890000000
H    -5.163000000    -0.143000000    -0.654000000
