215
-1463.33110
C    -2.148000000     5.125000000     1.522000000
H    -1.357000000     5.859000000     1.390000000
C    -2.009000000     3.869000000     2.134000000
C    -3.069000000     2.987000000     2.239000000
H    -2.921000000     1.963000000     2.571000000
C    -0.638000000     3.384000000     2.505000000
O     0.400000000     4.346000000     2.332000000
H    -0.490000000     2.613000000     1.735000000
O    -0.571000000     2.841000000     3.850000000
C     0.213000000     1.774000000     4.237000000
C    -0.406000000     0.509000000     4.419000000
H    -1.489000000     0.469000000     4.331000000
C     0.312000000    -0.669000000     4.676000000
O    -0.417000000    -1.880000000     4.696000000
C     1.710000000    -0.676000000     4.707000000
C     2.499000000    -1.982000000     4.792000000
H     3.428000000    -1.858000000     5.352000000
C     2.635000000    -2.610000000     3.407000000
C     3.746000000    -2.235000000     2.593000000
H     4.589000000    -1.618000000     2.893000000
H     1.989000000    -2.731000000     5.401000000
C     2.345000000     0.533000000     4.443000000
H     3.427000000     0.590000000     4.355000000
C     1.636000000     1.736000000     4.234000000
C     2.390000000     2.995000000     3.897000000
H     3.276000000     2.904000000     4.528000000
H     1.778000000     3.768000000     4.367000000
C     2.594000000     3.294000000     2.405000000
C     3.751000000     2.938000000     1.677000000
H     4.605000000     2.518000000     2.203000000
C     1.532000000     3.935000000     1.739000000
C     1.558000000     4.067000000     0.378000000
H     0.802000000     4.641000000    -0.151000000
C     2.625000000     3.636000000    -0.362000000
O     2.582000000     3.757000000    -1.709000000
C     2.278000000     2.539000000    -2.377000000
C     1.250000000     2.854000000    -3.451000000
C     1.340000000     2.208000000    -4.707000000
H     2.156000000     1.531000000    -4.946000000
C     0.267000000     3.782000000    -3.200000000
H     0.225000000     4.300000000    -2.245000000
O     3.465000000     1.946000000    -2.951000000
H     1.742000000     1.874000000    -1.683000000
C     3.763000000     3.154000000     0.299000000
C     4.950000000     2.584000000    -0.483000000
H     5.800000000     2.523000000     0.199000000
H     5.132000000     3.234000000    -1.342000000
C     4.674000000     1.112000000    -0.947000000
C     5.071000000     0.076000000    -0.175000000
H     5.682000000     0.196000000     0.716000000
C     4.044000000     0.888000000    -2.223000000
C     3.927000000    -0.415000000    -2.721000000
H     3.357000000    -0.647000000    -3.617000000
C     4.207000000    -1.475000000    -1.818000000
O     3.744000000    -2.734000000    -2.090000000
C     2.538000000    -3.239000000    -1.427000000
C     1.570000000    -3.869000000    -2.398000000
C     0.965000000    -3.096000000    -3.342000000
H     1.472000000    -2.153000000    -3.533000000
C     1.012000000    -5.130000000    -2.152000000
H     1.324000000    -5.727000000    -1.299000000
O     2.987000000    -4.178000000    -0.431000000
H     2.080000000    -2.392000000    -0.897000000
C     4.810000000    -1.237000000    -0.578000000
C     5.104000000    -2.405000000     0.474000000
H     5.840000000    -1.931000000     1.127000000
H     5.547000000    -3.317000000     0.070000000
C     3.890000000    -2.733000000     1.306000000
C     3.011000000    -3.682000000     0.836000000
C     1.894000000    -3.994000000     1.588000000
H     1.016000000    -4.472000000     1.162000000
C     1.681000000    -3.436000000     2.854000000
O     0.472000000    -3.734000000     3.438000000
C    -0.447000000    -2.614000000     3.440000000
H    -0.055000000    -2.033000000     2.592000000
C    -1.897000000    -2.986000000     3.098000000
C    -2.962000000    -2.218000000     3.531000000
H    -2.798000000    -1.326000000     4.130000000
C    -2.106000000    -4.077000000     2.229000000
H    -1.329000000    -4.784000000     1.948000000
C    -3.382000000    -4.317000000     1.799000000
O    -3.625000000    -5.417000000     0.959000000
C    -4.433000000    -3.596000000     2.277000000
H    -5.425000000    -3.732000000     1.855000000
C    -4.295000000    -2.554000000     3.171000000
O    -5.455000000    -1.996000000     3.679000000
C    -5.451000000    -0.656000000     3.844000000
C    -5.311000000     0.242000000     2.792000000
H    -5.049000000    -0.165000000     1.819000000
C    -5.727000000    -0.191000000     5.113000000
H    -5.772000000    -0.866000000     5.964000000
C    -5.851000000     1.184000000     5.355000000
H    -6.001000000     1.609000000     6.345000000
C    -5.850000000     2.090000000     4.266000000
H    -6.062000000     3.155000000     4.317000000
C    -5.559000000     1.567000000     2.945000000
O    -5.401000000     2.425000000     1.883000000
C    -4.350000000     3.372000000     1.830000000
C    -4.513000000     4.667000000     1.256000000
H    -5.557000000     4.763000000     0.970000000
C    -3.420000000     5.437000000     0.975000000
O    -3.498000000     6.642000000     0.282000000
C    -2.854000000     6.726000000    -0.974000000
C    -2.724000000     5.535000000    -1.761000000
H    -3.061000000     4.570000000    -1.391000000
C    -2.459000000     8.000000000    -1.469000000
H    -2.625000000     8.924000000    -0.922000000
C    -1.854000000     8.151000000    -2.726000000
H    -1.393000000     9.081000000    -3.049000000
C    -1.772000000     6.974000000    -3.506000000
H    -1.324000000     7.093000000    -4.489000000
C    -2.133000000     5.720000000    -3.020000000
O    -1.950000000     4.658000000    -3.916000000
C    -0.774000000     3.992000000    -4.087000000
C    -0.736000000     3.246000000    -5.306000000
H    -1.619000000     3.201000000    -5.939000000
C     0.286000000     2.360000000    -5.611000000
O     0.315000000     1.624000000    -6.775000000
C     0.680000000     0.321000000    -6.725000000
C    -0.190000000    -0.616000000    -6.192000000
H    -1.200000000    -0.316000000    -5.926000000
C     1.959000000    -0.049000000    -7.216000000
H     2.602000000     0.735000000    -7.606000000
C     2.360000000    -1.368000000    -7.069000000
H     3.354000000    -1.756000000    -7.272000000
C     1.507000000    -2.272000000    -6.454000000
H     1.927000000    -3.256000000    -6.262000000
C     0.222000000    -1.927000000    -5.969000000
O    -0.590000000    -2.776000000    -5.264000000
C     0.058000000    -3.567000000    -4.315000000
C    -0.389000000    -4.869000000    -4.101000000
H    -1.213000000    -5.227000000    -4.713000000
C    -0.086000000    -5.555000000    -2.944000000
O    -0.760000000    -6.706000000    -2.686000000
C    -1.314000000    -6.975000000    -1.395000000
C    -1.025000000    -8.191000000    -0.732000000
H    -0.443000000    -8.938000000    -1.265000000
C    -1.482000000    -8.332000000     0.583000000
H    -1.192000000    -9.217000000     1.142000000
C    -2.186000000    -7.327000000     1.203000000
H    -2.492000000    -7.364000000     2.245000000
C    -2.646000000    -6.308000000     0.440000000
C    -2.065000000    -6.066000000    -0.771000000
H    -2.308000000    -5.115000000    -1.238000000
C    -2.325000000     0.180000000    -0.340000000
H    -3.291000000     0.368000000     0.121000000
C    -1.139000000     0.152000000     0.386000000
H    -1.208000000     0.486000000     1.418000000
C     0.089000000    -0.123000000    -0.193000000
H     0.996000000    -0.196000000     0.470000000
C     0.107000000    -0.384000000    -1.586000000
H     1.119000000    -0.547000000    -1.947000000
C    -1.016000000    -0.375000000    -2.348000000
H    -0.869000000    -0.682000000    -3.380000000
C    -2.275000000    -0.083000000    -1.737000000
C    -3.570000000    -0.232000000    -2.496000000
O    -3.477000000    -0.490000000    -3.683000000
O    -4.636000000     0.087000000    -2.000000000
O    -4.573000000     4.643000000    -5.386000000
H    -4.641000000     4.450000000    -4.451000000
H    -5.126000000     5.415000000    -5.512000000
O    -4.125000000    -1.838000000    -7.500000000
H    -4.283000000    -2.711000000    -7.140000000
H    -4.328000000    -1.923000000    -8.432000000
O    -6.255000000    -0.651000000    -4.363000000
H    -5.635000000    -0.465000000    -3.657000000
H    -6.057000000    -1.550000000    -4.625000000
O    -8.579000000    -1.456000000    -3.033000000
H    -9.406000000    -1.203000000    -3.445000000
H    -7.919000000    -0.921000000    -3.474000000
O    -9.386000000     2.055000000    -4.091000000
H    -9.655000000     2.545000000    -3.315000000
H    -8.481000000     2.328000000    -4.245000000
O    -8.037000000    -4.486000000    -1.936000000
H    -8.165000000    -3.655000000    -2.394000000
H    -7.770000000    -4.234000000    -1.052000000
O    -7.701000000    -2.020000000     0.466000000
H    -8.266000000    -1.302000000     0.181000000
H    -7.057000000    -2.111000000    -0.236000000
O    -5.363000000    -2.671000000    -1.486000000
H    -4.599000000    -3.106000000    -1.865000000
H    -5.220000000    -1.741000000    -1.660000000
O    -6.711000000    -3.345000000    -5.523000000
H    -7.214000000    -2.864000000    -6.180000000
H    -7.271000000    -4.084000000    -5.286000000
O    -6.441000000     1.398000000    -0.460000000
H    -5.712000000     0.955000000    -0.894000000
H    -6.023000000     2.048000000     0.105000000
O    -6.905000000     3.774000000    -2.054000000
H    -6.134000000     3.263000000    -2.300000000
H    -7.393000000     3.880000000    -2.870000000
O    -3.132000000    -3.040000000    -3.632000000
H    -3.298000000    -2.099000000    -3.679000000
H    -2.181000000    -3.119000000    -3.698000000
O    -3.677000000     0.480000000    -6.077000000
H    -3.831000000    -0.313000000    -6.590000000
H    -3.651000000     0.176000000    -5.169000000
O    -4.202000000    -4.362000000    -6.363000000
H    -3.567000000    -4.264000000    -5.654000000
H    -5.041000000    -4.119000000    -5.970000000
O    -8.971000000     0.187000000    -0.690000000
H    -8.235000000     0.800000000    -0.699000000
H    -8.998000000    -0.166000000    -1.580000000
O    -4.981000000     2.506000000    -3.446000000
H    -5.166000000     1.873000000    -2.753000000
H    -4.299000000     2.090000000    -3.974000000
O    -4.503000000    -5.833000000    -3.714000000
H    -4.467000000    -4.882000000    -3.613000000
H    -5.405000000    -6.011000000    -3.980000000
O    -4.568000000     2.666000000    -7.113000000
H    -4.524000000     3.307000000    -6.403000000
H    -4.202000000     1.866000000    -6.736000000
O    -7.001000000     1.296000000    -6.057000000
H    -6.620000000     0.652000000    -5.460000000
H    -6.294000000     1.920000000    -6.220000000
