215
-1449.71793
C    -1.765000000     4.757000000     1.698000000
H    -0.845000000     5.226000000     1.359000000
C    -1.729000000     3.764000000     2.652000000
C    -2.961000000     3.245000000     3.124000000
H    -3.018000000     2.394000000     3.798000000
C    -0.438000000     3.141000000     3.139000000
O     0.583000000     4.144000000     3.130000000
H    -0.215000000     2.430000000     2.329000000
O    -0.615000000     2.443000000     4.420000000
C    -0.029000000     1.275000000     4.575000000
C    -0.849000000     0.149000000     4.430000000
H    -1.917000000     0.331000000     4.344000000
C    -0.245000000    -1.110000000     4.387000000
O    -1.143000000    -2.055000000     4.279000000
C     1.148000000    -1.297000000     4.466000000
C     1.720000000    -2.665000000     4.496000000
H     2.614000000    -2.732000000     5.118000000
C     1.985000000    -3.051000000     3.075000000
C     3.262000000    -2.857000000     2.400000000
H     4.072000000    -2.347000000     2.916000000
H     0.972000000    -3.254000000     5.032000000
C     1.975000000    -0.133000000     4.564000000
H     3.056000000    -0.178000000     4.453000000
C     1.387000000     1.132000000     4.576000000
C     2.259000000     2.338000000     4.589000000
H     3.174000000     2.099000000     5.134000000
H     1.807000000     3.157000000     5.151000000
C     2.663000000     2.877000000     3.230000000
C     3.781000000     2.397000000     2.518000000
H     4.463000000     1.632000000     2.879000000
C     1.789000000     3.814000000     2.600000000
C     1.979000000     4.137000000     1.279000000
H     1.291000000     4.774000000     0.730000000
C     3.061000000     3.638000000     0.562000000
O     2.990000000     3.743000000    -0.864000000
C     2.581000000     2.613000000    -1.732000000
C     1.674000000     3.102000000    -2.853000000
C     1.365000000     2.145000000    -3.881000000
H     1.739000000     1.125000000    -3.837000000
C     1.092000000     4.339000000    -2.910000000
H     1.250000000     5.050000000    -2.103000000
O     3.738000000     1.973000000    -2.265000000
H     2.147000000     1.901000000    -1.015000000
C     4.024000000     2.810000000     1.190000000
C     5.065000000     2.146000000     0.305000000
H     5.942000000     1.928000000     0.919000000
H     5.409000000     2.796000000    -0.503000000
C     4.591000000     0.793000000    -0.317000000
C     4.783000000    -0.363000000     0.306000000
H     5.216000000    -0.438000000     1.300000000
C     4.107000000     0.803000000    -1.675000000
C     3.715000000    -0.363000000    -2.279000000
H     3.210000000    -0.373000000    -3.241000000
C     3.899000000    -1.553000000    -1.615000000
O     3.539000000    -2.661000000    -2.311000000
C     2.240000000    -3.237000000    -1.842000000
C     1.463000000    -3.726000000    -3.027000000
C     1.625000000    -3.295000000    -4.368000000
H     2.384000000    -2.534000000    -4.533000000
C     0.375000000    -4.636000000    -2.833000000
H     0.220000000    -5.108000000    -1.866000000
O     2.490000000    -4.257000000    -0.910000000
H     1.530000000    -2.570000000    -1.331000000
C     4.460000000    -1.619000000    -0.336000000
C     4.744000000    -2.930000000     0.426000000
H     5.634000000    -2.937000000     1.059000000
H     5.048000000    -3.649000000    -0.337000000
C     3.438000000    -3.341000000     1.101000000
C     2.380000000    -3.953000000     0.399000000
C     1.106000000    -4.108000000     1.018000000
H     0.329000000    -4.712000000     0.557000000
C     0.924000000    -3.725000000     2.310000000
O    -0.356000000    -3.822000000     2.933000000
C    -1.227000000    -2.690000000     2.951000000
H    -0.856000000    -2.053000000     2.135000000
C    -2.651000000    -2.908000000     2.404000000
C    -3.728000000    -2.111000000     2.813000000
H    -3.738000000    -1.273000000     3.504000000
C    -2.914000000    -3.900000000     1.437000000
H    -2.104000000    -4.497000000     1.027000000
C    -4.121000000    -4.047000000     0.871000000
O    -4.291000000    -4.977000000    -0.189000000
C    -5.228000000    -3.395000000     1.417000000
H    -6.213000000    -3.561000000     0.989000000
C    -5.029000000    -2.352000000     2.310000000
O    -6.119000000    -1.613000000     2.766000000
C    -5.975000000    -0.488000000     3.540000000
C    -5.835000000     0.717000000     2.832000000
H    -5.857000000     0.742000000     1.745000000
C    -5.771000000    -0.568000000     4.900000000
H    -5.930000000    -1.523000000     5.394000000
C    -5.363000000     0.538000000     5.572000000
H    -5.131000000     0.506000000     6.634000000
C    -5.309000000     1.764000000     4.947000000
H    -5.058000000     2.692000000     5.455000000
C    -5.478000000     1.852000000     3.578000000
O    -5.398000000     3.088000000     2.946000000
C    -4.190000000     3.665000000     2.602000000
C    -4.166000000     4.614000000     1.569000000
H    -5.061000000     4.966000000     1.062000000
C    -3.001000000     5.148000000     1.080000000
O    -3.037000000     6.114000000     0.088000000
C    -1.951000000     6.601000000    -0.646000000
C    -1.710000000     5.997000000    -1.837000000
H    -2.251000000     5.108000000    -2.153000000
C    -1.303000000     7.797000000    -0.233000000
H    -1.684000000     8.340000000     0.628000000
C    -0.309000000     8.381000000    -1.028000000
H     0.281000000     9.229000000    -0.690000000
C    -0.012000000     7.767000000    -2.269000000
H     0.887000000     8.123000000    -2.766000000
C    -0.681000000     6.568000000    -2.656000000
O    -0.277000000     5.981000000    -3.870000000
C     0.241000000     4.689000000    -3.905000000
C    -0.138000000     3.783000000    -4.918000000
H    -0.931000000     4.038000000    -5.616000000
C     0.457000000     2.506000000    -4.936000000
O    -0.013000000     1.589000000    -5.893000000
C     0.772000000     0.612000000    -6.471000000
C     0.337000000    -0.732000000    -6.541000000
H    -0.704000000    -0.956000000    -6.323000000
C     2.158000000     0.874000000    -6.680000000
H     2.505000000     1.904000000    -6.680000000
C     3.025000000    -0.129000000    -7.058000000
H     3.992000000     0.084000000    -7.505000000
C     2.511000000    -1.455000000    -7.150000000
H     3.256000000    -2.221000000    -7.353000000
C     1.223000000    -1.783000000    -6.756000000
O     0.887000000    -3.091000000    -6.638000000
C     0.800000000    -3.693000000    -5.415000000
C    -0.114000000    -4.699000000    -5.235000000
H    -0.824000000    -5.051000000    -5.980000000
C    -0.371000000    -5.145000000    -3.897000000
O    -1.273000000    -6.179000000    -3.753000000
C    -2.008000000    -6.525000000    -2.640000000
C    -1.749000000    -7.714000000    -2.007000000
H    -1.039000000    -8.355000000    -2.523000000
C    -2.374000000    -8.051000000    -0.778000000
H    -2.090000000    -8.938000000    -0.217000000
C    -3.227000000    -7.149000000    -0.160000000
H    -3.557000000    -7.329000000     0.859000000
C    -3.407000000    -5.898000000    -0.734000000
C    -2.868000000    -5.653000000    -1.999000000
H    -3.057000000    -4.669000000    -2.421000000
C    -3.308000000    -0.314000000    -0.148000000
H    -4.280000000    -0.166000000     0.315000000
C    -2.076000000    -0.098000000     0.530000000
H    -2.048000000     0.279000000     1.549000000
C    -0.862000000    -0.218000000    -0.212000000
H     0.028000000    -0.057000000     0.286000000
C    -0.891000000    -0.641000000    -1.540000000
H    -0.011000000    -0.793000000    -2.159000000
C    -2.072000000    -0.821000000    -2.192000000
H    -2.115000000    -1.036000000    -3.257000000
C    -3.291000000    -0.638000000    -1.544000000
C    -4.565000000    -0.573000000    -2.303000000
O    -4.457000000    -0.772000000    -3.484000000
O    -5.593000000    -0.327000000    -1.756000000
O    -4.815000000     2.953000000    -2.533000000
H    -5.164000000     2.605000000    -1.712000000
H    -3.865000000     2.883000000    -2.437000000
O    -5.611000000     4.969000000    -4.124000000
H    -5.668000000     5.790000000    -3.634000000
H    -5.235000000     4.345000000    -3.503000000
O    -4.925000000    -3.362000000    -4.110000000
H    -4.809000000    -2.418000000    -4.001000000
H    -5.421000000    -3.450000000    -4.924000000
O    -9.429000000    -1.223000000    -2.741000000
H    -8.639000000    -1.410000000    -2.233000000
H    -9.187000000    -0.483000000    -3.297000000
O    -9.170000000     1.324000000     0.059000000
H    -9.338000000     0.382000000     0.070000000
H    -9.966000000     1.705000000    -0.311000000
O    -2.696000000     0.680000000    -6.879000000
H    -2.737000000    -0.218000000    -6.552000000
H    -3.181000000     1.193000000    -6.233000000
O    -6.710000000    -4.356000000    -2.275000000
H    -5.809000000    -4.213000000    -2.564000000
H    -7.215000000    -4.419000000    -3.086000000
O    -5.939000000    -0.738000000    -7.808000000
H    -6.064000000     0.208000000    -7.879000000
H    -6.158000000    -0.941000000    -6.898000000
O    -7.413000000    -1.967000000    -1.047000000
H    -7.102000000    -2.844000000    -1.270000000
H    -6.766000000    -1.377000000    -1.435000000
O    -6.479000000     1.721000000    -0.429000000
H    -7.407000000     1.583000000    -0.243000000
H    -6.235000000     0.985000000    -0.990000000
O    -6.715000000    -0.823000000    -5.169000000
H    -7.340000000    -0.098000000    -5.178000000
H    -6.112000000    -0.611000000    -4.457000000
O    -2.834000000    -2.000000000    -5.854000000
H    -3.085000000    -1.736000000    -4.969000000
H    -3.266000000    -2.845000000    -5.983000000
O    -7.179000000    -6.198000000    -0.142000000
H    -7.003000000    -5.668000000    -0.920000000
H    -6.360000000    -6.176000000     0.353000000
O    -9.764000000    -1.187000000     0.466000000
H    -8.945000000    -1.670000000     0.363000000
H   -10.418000000    -1.725000000     0.020000000
O    -4.635000000     4.042000000    -6.548000000
H    -4.286000000     3.284000000    -6.078000000
H    -5.036000000     4.581000000    -5.867000000
O    -2.154000000     2.389000000    -2.128000000
H    -1.261000000     2.537000000    -2.442000000
H    -2.129000000     1.514000000    -1.739000000
O    -4.183000000     1.509000000    -4.806000000
H    -4.327000000     2.009000000    -4.003000000
H    -4.167000000     0.595000000    -4.520000000
O    -7.637000000    -4.558000000    -4.860000000
H    -7.589000000    -4.078000000    -5.687000000
H    -8.541000000    -4.442000000    -4.567000000
O    -9.036000000     1.082000000    -4.132000000
H    -9.204000000     1.338000000    -5.039000000
H    -9.186000000     1.880000000    -3.626000000
