215
-1459.18001
C    -3.134000000     3.691000000     1.642000000
H    -2.350000000     4.222000000     1.108000000
C    -2.706000000     3.143000000     2.845000000
C    -3.678000000     2.590000000     3.694000000
H    -3.486000000     1.991000000     4.581000000
C    -1.228000000     2.832000000     3.111000000
O    -0.498000000     4.132000000     2.939000000
H    -0.946000000     2.165000000     2.283000000
O    -1.064000000     2.247000000     4.416000000
C    -0.146000000     1.215000000     4.375000000
C    -0.687000000    -0.086000000     4.555000000
H    -1.768000000    -0.199000000     4.545000000
C     0.189000000    -1.150000000     4.599000000
O    -0.398000000    -2.365000000     4.344000000
C     1.573000000    -0.947000000     4.385000000
C     2.617000000    -2.067000000     4.333000000
H     3.527000000    -1.648000000     4.767000000
C     2.879000000    -2.623000000     2.936000000
C     4.020000000    -2.227000000     2.270000000
H     4.661000000    -1.469000000     2.714000000
H     2.357000000    -2.908000000     4.981000000
C     2.008000000     0.373000000     4.404000000
H     3.091000000     0.465000000     4.421000000
C     1.215000000     1.454000000     4.464000000
C     1.733000000     2.891000000     4.431000000
H     2.677000000     2.946000000     4.978000000
H     1.082000000     3.504000000     5.057000000
C     1.847000000     3.378000000     3.009000000
C     3.042000000     3.133000000     2.316000000
H     3.843000000     2.776000000     2.958000000
C     0.723000000     3.972000000     2.352000000
C     0.922000000     4.282000000     1.014000000
H     0.137000000     4.889000000     0.571000000
C     2.044000000     3.862000000     0.242000000
O     2.137000000     4.267000000    -1.080000000
C     1.995000000     3.118000000    -1.989000000
C     0.972000000     3.408000000    -3.089000000
C     1.137000000     2.783000000    -4.298000000
H     1.967000000     2.105000000    -4.482000000
C    -0.106000000     4.233000000    -2.756000000
H    -0.286000000     4.732000000    -1.808000000
O     3.341000000     2.671000000    -2.433000000
H     1.638000000     2.252000000    -1.412000000
C     3.123000000     3.369000000     0.951000000
C     4.468000000     3.122000000     0.270000000
H     5.202000000     3.056000000     1.075000000
H     4.778000000     4.014000000    -0.279000000
C     4.442000000     1.799000000    -0.480000000
C     4.958000000     0.610000000     0.127000000
H     5.420000000     0.734000000     1.103000000
C     3.947000000     1.679000000    -1.820000000
C     3.984000000     0.416000000    -2.527000000
H     3.625000000     0.290000000    -3.546000000
C     4.425000000    -0.648000000    -1.897000000
O     4.142000000    -1.847000000    -2.511000000
C     2.986000000    -2.548000000    -1.945000000
C     2.118000000    -3.053000000    -2.993000000
C     2.206000000    -2.534000000    -4.288000000
H     2.782000000    -1.634000000    -4.489000000
C     1.089000000    -3.969000000    -2.715000000
H     0.886000000    -4.289000000    -1.697000000
O     3.454000000    -3.595000000    -1.114000000
H     2.432000000    -1.743000000    -1.439000000
C     4.893000000    -0.608000000    -0.572000000
C     5.378000000    -1.815000000     0.144000000
H     6.053000000    -1.423000000     0.908000000
H     5.933000000    -2.555000000    -0.437000000
C     4.244000000    -2.534000000     0.913000000
C     3.384000000    -3.415000000     0.279000000
C     2.278000000    -3.902000000     0.925000000
H     1.591000000    -4.479000000     0.311000000
C     1.981000000    -3.462000000     2.236000000
O     0.734000000    -3.866000000     2.760000000
C    -0.335000000    -2.870000000     2.976000000
H    -0.086000000    -2.055000000     2.279000000
C    -1.707000000    -3.518000000     2.585000000
C    -2.806000000    -2.699000000     2.734000000
H    -2.705000000    -1.690000000     3.124000000
C    -1.800000000    -4.659000000     1.828000000
H    -0.897000000    -5.240000000     1.662000000
C    -2.979000000    -4.997000000     1.230000000
O    -3.019000000    -6.142000000     0.489000000
C    -4.178000000    -4.308000000     1.472000000
H    -5.067000000    -4.728000000     1.010000000
C    -4.079000000    -3.147000000     2.225000000
O    -5.217000000    -2.397000000     2.361000000
C    -5.441000000    -1.527000000     3.458000000
C    -5.729000000    -0.161000000     3.218000000
H    -5.567000000     0.163000000     2.193000000
C    -5.471000000    -2.001000000     4.762000000
H    -5.319000000    -3.075000000     4.841000000
C    -5.787000000    -1.180000000     5.854000000
H    -5.939000000    -1.598000000     6.845000000
C    -5.947000000     0.209000000     5.574000000
H    -6.147000000     0.953000000     6.341000000
C    -5.945000000     0.737000000     4.253000000
O    -6.042000000     2.080000000     4.007000000
C    -5.027000000     2.621000000     3.246000000
C    -5.450000000     3.234000000     2.054000000
H    -6.514000000     3.123000000     1.859000000
C    -4.524000000     3.722000000     1.216000000
O    -4.974000000     4.462000000     0.085000000
C    -4.108000000     5.299000000    -0.631000000
C    -3.532000000     4.853000000    -1.786000000
H    -3.975000000     3.975000000    -2.250000000
C    -3.723000000     6.506000000    -0.005000000
H    -4.091000000     6.822000000     0.968000000
C    -2.663000000     7.241000000    -0.562000000
H    -2.218000000     8.127000000    -0.115000000
C    -1.997000000     6.828000000    -1.716000000
H    -1.149000000     7.270000000    -2.234000000
C    -2.532000000     5.660000000    -2.346000000
O    -2.173000000     5.221000000    -3.576000000
C    -0.988000000     4.508000000    -3.832000000
C    -0.870000000     3.909000000    -5.082000000
H    -1.661000000     4.081000000    -5.808000000
C     0.191000000     2.985000000    -5.276000000
O     0.200000000     2.224000000    -6.424000000
C     1.076000000     1.215000000    -6.805000000
C     0.774000000    -0.139000000    -6.616000000
H    -0.171000000    -0.391000000    -6.142000000
C     2.260000000     1.582000000    -7.397000000
H     2.491000000     2.629000000    -7.577000000
C     3.248000000     0.637000000    -7.653000000
H     4.186000000     0.902000000    -8.134000000
C     2.999000000    -0.719000000    -7.342000000
H     3.781000000    -1.456000000    -7.501000000
C     1.749000000    -1.096000000    -6.793000000
O     1.373000000    -2.484000000    -6.651000000
C     1.364000000    -3.024000000    -5.315000000
C     0.596000000    -4.047000000    -5.021000000
H     0.048000000    -4.445000000    -5.872000000
C     0.392000000    -4.503000000    -3.758000000
O    -0.629000000    -5.461000000    -3.583000000
C    -0.872000000    -6.174000000    -2.448000000
C    -0.123000000    -7.336000000    -2.236000000
H     0.650000000    -7.642000000    -2.937000000
C    -0.324000000    -8.057000000    -1.048000000
H     0.189000000    -8.998000000    -0.867000000
C    -1.223000000    -7.622000000    -0.077000000
H    -1.434000000    -8.186000000     0.828000000
C    -1.983000000    -6.485000000    -0.330000000
C    -1.785000000    -5.754000000    -1.526000000
H    -2.425000000    -4.933000000    -1.838000000
C    -3.213000000     0.744000000    -0.319000000
H    -3.969000000     1.524000000    -0.351000000
C    -1.899000000     0.925000000     0.046000000
H    -1.561000000     1.957000000     0.105000000
C    -0.892000000    -0.123000000     0.046000000
H     0.184000000     0.072000000     0.352000000
C    -1.289000000    -1.422000000    -0.305000000
H    -0.607000000    -2.267000000    -0.340000000
C    -2.690000000    -1.663000000    -0.654000000
H    -2.972000000    -2.705000000    -0.787000000
C    -3.596000000    -0.595000000    -0.649000000
C    -5.108000000    -0.885000000    -0.942000000
O    -5.530000000    -2.013000000    -1.260000000
O    -5.860000000    -0.006000000    -0.545000000
O    -4.125000000     2.090000000    -4.150000000
H    -3.389000000     1.669000000    -3.705000000
H    -4.738000000     2.304000000    -3.448000000
O    -6.034000000     2.321000000    -2.168000000
H    -6.234000000     3.040000000    -1.569000000
H    -6.203000000     1.530000000    -1.657000000
O    -2.403000000    -2.723000000    -4.832000000
H    -2.646000000    -3.625000000    -5.040000000
H    -3.189000000    -2.212000000    -5.025000000
O    -9.557000000     1.037000000    -4.281000000
H   -10.348000000     1.332000000    -3.831000000
H    -9.081000000     0.531000000    -3.622000000
O    -9.468000000    -1.081000000     1.508000000
H    -9.174000000    -0.172000000     1.437000000
H    -8.682000000    -1.600000000     1.338000000
O    -5.770000000    -2.655000000    -3.672000000
H    -5.787000000    -2.292000000    -2.787000000
H    -5.223000000    -2.048000000    -4.170000000
O    -9.916000000    -2.269000000    -3.603000000
H    -9.154000000    -1.950000000    -3.119000000
H   -10.342000000    -2.881000000    -3.002000000
O    -0.517000000    -1.125000000    -3.802000000
H    -1.279000000    -1.577000000    -4.165000000
H     0.234000000    -1.550000000    -4.216000000
O    -5.548000000    -4.625000000    -1.277000000
H    -5.207000000    -4.821000000    -2.150000000
H    -5.725000000    -3.684000000    -1.295000000
O    -4.420000000    -5.042000000    -3.998000000
H    -3.981000000    -5.297000000    -4.810000000
H    -4.950000000    -4.282000000    -4.241000000
O    -6.061000000    -6.922000000    -0.020000000
H    -6.760000000    -7.210000000    -0.607000000
H    -5.622000000    -6.219000000    -0.498000000
O    -7.882000000    -2.320000000    -5.382000000
H    -8.676000000    -2.259000000    -4.850000000
H    -7.179000000    -2.459000000    -4.748000000
O    -7.870000000     3.744000000    -0.536000000
H    -7.649000000     4.541000000    -1.018000000
H    -8.611000000     3.997000000     0.016000000
O    -7.361000000    -2.485000000     0.618000000
H    -6.863000000    -3.103000000     1.154000000
H    -6.695000000    -1.990000000     0.142000000
O    -8.158000000     1.157000000     0.353000000
H    -8.062000000     2.024000000    -0.041000000
H    -7.436000000     0.646000000    -0.015000000
O    -8.190000000    -0.827000000    -2.090000000
H    -8.800000000    -0.819000000    -1.352000000
H    -7.339000000    -0.626000000    -1.699000000
O    -1.820000000     1.080000000    -3.099000000
H    -1.269000000     0.362000000    -3.410000000
H    -2.013000000     0.857000000    -2.188000000
O    -4.686000000    -0.544000000    -5.257000000
H    -4.769000000     0.377000000    -5.008000000
H    -4.433000000    -0.521000000    -6.179000000
O    -7.889000000     0.410000000    -6.145000000
H    -8.464000000     0.645000000    -5.416000000
H    -7.511000000    -0.432000000    -5.891000000
