215
-1489.86784
C    -0.833000000    -2.426000000    -3.815000000
H    -0.994000000    -1.425000000    -4.205000000
C    -1.472000000    -2.829000000    -2.635000000
C    -1.191000000    -4.119000000    -2.187000000
H    -1.779000000    -4.516000000    -1.363000000
C    -2.542000000    -1.960000000    -2.097000000
O    -3.037000000    -1.011000000    -3.087000000
H    -2.055000000    -1.341000000    -1.329000000
O    -3.584000000    -2.732000000    -1.506000000
C    -4.030000000    -2.307000000    -0.247000000
C    -3.568000000    -3.083000000     0.805000000
H    -2.974000000    -3.952000000     0.536000000
C    -3.732000000    -2.712000000     2.140000000
O    -3.097000000    -3.377000000     3.136000000
C    -4.399000000    -1.509000000     2.400000000
C    -4.351000000    -0.847000000     3.808000000
H    -5.167000000    -0.144000000     3.985000000
C    -3.043000000    -0.009000000     4.035000000
C    -3.123000000     1.352000000     3.820000000
H    -4.067000000     1.852000000     3.623000000
H    -4.363000000    -1.571000000     4.625000000
C    -4.918000000    -0.786000000     1.294000000
H    -5.490000000     0.127000000     1.433000000
C    -4.789000000    -1.194000000    -0.013000000
C    -5.324000000    -0.292000000    -1.144000000
H    -6.262000000     0.219000000    -0.917000000
H    -5.547000000    -1.023000000    -1.924000000
C    -4.201000000     0.631000000    -1.668000000
C    -4.272000000     1.947000000    -1.213000000
H    -4.828000000     2.119000000    -0.296000000
C    -3.219000000     0.259000000    -2.678000000
C    -2.318000000     1.204000000    -3.135000000
H    -1.684000000     0.917000000    -3.971000000
C    -2.402000000     2.566000000    -2.752000000
O    -1.471000000     3.490000000    -3.154000000
C    -0.253000000     3.721000000    -2.407000000
C     0.997000000     3.673000000    -3.289000000
C     2.092000000     4.509000000    -3.067000000
H     2.025000000     5.139000000    -2.184000000
C     1.044000000     2.679000000    -4.335000000
H     0.166000000     2.065000000    -4.520000000
O    -0.340000000     4.999000000    -1.693000000
H    -0.038000000     2.872000000    -1.742000000
C    -3.342000000     2.873000000    -1.745000000
C    -3.277000000     4.303000000    -1.221000000
H    -4.206000000     4.689000000    -0.798000000
H    -3.268000000     4.937000000    -2.110000000
C    -2.192000000     4.480000000    -0.104000000
C    -2.554000000     4.199000000     1.209000000
H    -3.593000000     3.901000000     1.325000000
C    -0.836000000     4.799000000    -0.400000000
C     0.074000000     4.819000000     0.663000000
H     1.140000000     4.960000000     0.504000000
C    -0.354000000     4.524000000     2.004000000
O     0.585000000     4.217000000     2.928000000
C     0.859000000     2.768000000     2.913000000
C     2.327000000     2.527000000     2.563000000
C     3.159000000     3.548000000     2.110000000
H     2.829000000     4.583000000     2.124000000
C     2.848000000     1.257000000     2.606000000
H     2.192000000     0.429000000     2.863000000
O     0.402000000     2.187000000     4.191000000
H     0.316000000     2.253000000     2.107000000
C    -1.698000000     4.174000000     2.308000000
C    -2.157000000     3.691000000     3.627000000
H    -3.208000000     3.926000000     3.809000000
H    -1.607000000     4.180000000     4.434000000
C    -1.986000000     2.161000000     3.759000000
C    -0.766000000     1.516000000     4.092000000
C    -0.704000000     0.166000000     4.395000000
H     0.269000000    -0.263000000     4.623000000
C    -1.809000000    -0.633000000     4.216000000
O    -1.667000000    -1.965000000     4.433000000
C    -1.726000000    -2.848000000     3.290000000
H    -1.491000000    -2.276000000     2.380000000
C    -0.644000000    -3.942000000     3.399000000
C    -0.791000000    -5.180000000     2.749000000
H    -1.737000000    -5.265000000     2.221000000
C     0.590000000    -3.620000000     4.010000000
H     0.716000000    -2.680000000     4.542000000
C     1.632000000    -4.526000000     4.060000000
O     2.839000000    -4.212000000     4.589000000
C     1.452000000    -5.779000000     3.417000000
H     2.270000000    -6.489000000     3.502000000
C     0.265000000    -6.101000000     2.771000000
O     0.108000000    -7.321000000     2.250000000
C    -0.494000000    -7.482000000     1.038000000
C     0.067000000    -6.756000000    -0.070000000
H     0.951000000    -6.127000000    -0.006000000
C    -1.567000000    -8.336000000     0.814000000
H    -1.966000000    -8.736000000     1.743000000
C    -2.263000000    -8.427000000    -0.416000000
H    -3.123000000    -9.079000000    -0.540000000
C    -1.720000000    -7.655000000    -1.438000000
H    -2.217000000    -7.638000000    -2.404000000
C    -0.609000000    -6.824000000    -1.312000000
O    -0.063000000    -6.302000000    -2.449000000
C    -0.299000000    -4.981000000    -2.845000000
C     0.352000000    -4.538000000    -3.971000000
H     1.085000000    -5.188000000    -4.442000000
C     0.079000000    -3.253000000    -4.434000000
O     0.718000000    -2.806000000    -5.607000000
C     0.490000000    -1.554000000    -6.217000000
C     1.435000000    -0.555000000    -5.946000000
H     2.216000000    -0.804000000    -5.232000000
C    -0.616000000    -1.232000000    -7.066000000
H    -1.294000000    -2.033000000    -7.352000000
C    -0.739000000     0.041000000    -7.672000000
H    -1.509000000     0.372000000    -8.364000000
C     0.203000000     1.007000000    -7.396000000
H     0.107000000     2.003000000    -7.821000000
C     1.214000000     0.712000000    -6.492000000
O     2.152000000     1.691000000    -6.243000000
C     2.158000000     2.562000000    -5.137000000
C     3.270000000     3.352000000    -4.845000000
H     4.158000000     3.158000000    -5.442000000
C     3.282000000     4.244000000    -3.772000000
O     4.450000000     4.882000000    -3.466000000
C     4.805000000     5.315000000    -2.151000000
C     4.807000000     4.502000000    -1.037000000
H     4.556000000     3.463000000    -1.234000000
C     5.144000000     6.658000000    -2.025000000
H     5.081000000     7.284000000    -2.912000000
C     5.489000000     7.138000000    -0.803000000
H     5.740000000     8.186000000    -0.656000000
C     5.471000000     6.348000000     0.320000000
H     5.729000000     6.785000000     1.282000000
C     5.151000000     5.018000000     0.214000000
O     5.299000000     4.278000000     1.399000000
C     4.462000000     3.284000000     1.767000000
C     4.997000000     1.998000000     1.879000000
H     6.045000000     1.718000000     1.807000000
C     4.163000000     0.965000000     2.298000000
O     4.651000000    -0.301000000     2.370000000
C     4.324000000    -1.029000000     3.471000000
C     4.854000000    -0.560000000     4.678000000
H     5.395000000     0.374000000     4.809000000
C     4.557000000    -1.223000000     5.843000000
H     4.865000000    -0.935000000     6.844000000
C     3.756000000    -2.414000000     5.816000000
H     3.587000000    -2.942000000     6.751000000
C     3.366000000    -2.938000000     4.584000000
C     3.548000000    -2.191000000     3.367000000
H     3.363000000    -2.641000000     2.394000000
C     2.450000000     0.159000000    -0.630000000
H     3.305000000     0.791000000    -0.859000000
C     1.215000000     0.639000000    -0.205000000
H     1.211000000     1.723000000    -0.132000000
C     0.214000000    -0.208000000     0.162000000
H    -0.595000000     0.249000000     0.720000000
C     0.394000000    -1.601000000     0.079000000
H    -0.357000000    -2.306000000     0.428000000
C     1.578000000    -2.113000000    -0.443000000
H     1.707000000    -3.192000000    -0.494000000
C     2.647000000    -1.215000000    -0.762000000
C     4.003000000    -1.807000000    -1.051000000
O     4.159000000    -3.027000000    -0.945000000
O     4.862000000    -1.139000000    -1.592000000
O     4.269000000    -1.324000000    -6.712000000
H     4.464000000    -0.402000000    -6.546000000
H     3.981000000    -1.664000000    -5.865000000
O     9.248000000     0.900000000     1.409000000
H     8.637000000     0.606000000     0.733000000
H     8.938000000     1.773000000     1.649000000
O     6.364000000    -4.637000000     3.539000000
H     6.390000000    -3.818000000     4.033000000
H     6.426000000    -4.366000000     2.623000000
O     3.616000000    -7.612000000     0.951000000
H     3.289000000    -6.717000000     0.865000000
H     2.827000000    -8.155000000     0.958000000
O     4.694000000    -6.981000000    -3.923000000
H     4.614000000    -6.152000000    -3.452000000
H     4.282000000    -7.625000000    -3.347000000
O     6.441000000    -3.628000000     0.675000000
H     6.785000000    -4.182000000    -0.025000000
H     5.681000000    -3.195000000     0.286000000
O     4.216000000     0.666000000    -3.591000000
H     3.440000000     0.265000000    -3.982000000
H     4.306000000     0.234000000    -2.742000000
O     8.279000000    -5.798000000     1.445000000
H     8.140000000    -5.726000000     2.389000000
H     7.652000000    -6.463000000     1.160000000
O     3.946000000    -3.031000000    -4.540000000
H     4.898000000    -3.046000000    -4.448000000
H     3.626000000    -3.533000000    -3.790000000
O     9.314000000    -2.536000000    -2.362000000
H     9.696000000    -1.878000000    -1.782000000
H     9.867000000    -2.515000000    -3.144000000
O     8.601000000     0.947000000    -3.175000000
H     8.621000000     1.517000000    -2.407000000
H     7.724000000     1.068000000    -3.540000000
O     6.422000000     2.394000000    -3.433000000
H     6.689000000     2.598000000    -4.330000000
H     5.737000000     1.733000000    -3.532000000
O     3.437000000    -4.838000000     1.052000000
H     4.171000000    -4.544000000     1.592000000
H     3.482000000    -4.292000000     0.268000000
O     5.575000000    -5.321000000    -2.062000000
H     4.996000000    -4.783000000    -1.522000000
H     6.200000000    -4.700000000    -2.436000000
O     6.104000000    -7.033000000     0.055000000
H     5.226000000    -7.358000000     0.256000000
H     6.033000000    -6.686000000    -0.835000000
O     6.490000000    -2.705000000    -3.123000000
H     7.413000000    -2.451000000    -3.133000000
H     6.080000000    -2.096000000    -2.509000000
O     8.585000000    -5.115000000    -1.491000000
H     8.863000000    -4.224000000    -1.279000000
H     8.380000000    -5.511000000    -0.644000000
O     7.565000000    -1.544000000     2.742000000
H     7.095000000    -1.771000000     1.939000000
H     8.091000000    -0.780000000     2.504000000
O     7.306000000    -0.137000000    -0.583000000
H     7.982000000    -0.532000000    -1.135000000
H     6.485000000    -0.323000000    -1.039000000
