215
-1457.52399
C    -2.074000000     4.247000000     2.663000000
H    -1.323000000     4.860000000     2.173000000
C    -1.862000000     3.102000000     3.424000000
C    -2.963000000     2.268000000     3.801000000
H    -2.754000000     1.314000000     4.280000000
C    -0.407000000     2.550000000     3.478000000
O     0.569000000     3.571000000     3.423000000
H    -0.331000000     1.923000000     2.577000000
O    -0.260000000     1.783000000     4.821000000
C     0.500000000     0.688000000     4.705000000
C    -0.234000000    -0.472000000     4.614000000
H    -1.307000000    -0.373000000     4.759000000
C     0.438000000    -1.668000000     4.322000000
O    -0.406000000    -2.689000000     4.020000000
C     1.844000000    -1.761000000     4.183000000
C     2.610000000    -2.998000000     3.846000000
H     3.592000000    -2.907000000     4.316000000
C     2.593000000    -3.308000000     2.371000000
C     3.737000000    -2.965000000     1.653000000
H     4.651000000    -2.550000000     2.069000000
H     2.161000000    -3.853000000     4.356000000
C     2.518000000    -0.529000000     4.315000000
H     3.598000000    -0.420000000     4.262000000
C     1.915000000     0.660000000     4.543000000
C     2.719000000     1.913000000     4.465000000
H     3.749000000     1.641000000     4.707000000
H     2.427000000     2.697000000     5.167000000
C     2.801000000     2.523000000     3.116000000
C     3.924000000     2.260000000     2.325000000
H     4.828000000     1.803000000     2.719000000
C     1.694000000     3.273000000     2.619000000
C     1.722000000     3.796000000     1.342000000
H     0.797000000     4.249000000     0.996000000
C     2.842000000     3.541000000     0.526000000
O     2.735000000     4.020000000    -0.793000000
C     2.305000000     2.993000000    -1.809000000
C     1.302000000     3.546000000    -2.804000000
C     1.395000000     3.310000000    -4.202000000
H     2.254000000     2.771000000    -4.593000000
C     0.115000000     4.135000000    -2.436000000
H    -0.175000000     4.107000000    -1.389000000
O     3.434000000     2.513000000    -2.467000000
H     1.757000000     2.214000000    -1.259000000
C     3.893000000     2.699000000     0.982000000
C     5.085000000     2.225000000     0.046000000
H     5.887000000     1.955000000     0.736000000
H     5.377000000     3.031000000    -0.631000000
C     4.741000000     1.094000000    -0.870000000
C     5.018000000    -0.193000000    -0.385000000
H     5.471000000    -0.391000000     0.583000000
C     4.017000000     1.269000000    -2.055000000
C     3.820000000     0.158000000    -2.863000000
H     3.312000000     0.241000000    -3.820000000
C     4.025000000    -1.088000000    -2.395000000
O     3.525000000    -2.196000000    -3.066000000
C     2.284000000    -2.617000000    -2.490000000
C     1.183000000    -2.846000000    -3.537000000
C     1.101000000    -2.020000000    -4.603000000
H     1.907000000    -1.311000000    -4.772000000
C     0.116000000    -3.728000000    -3.268000000
H     0.090000000    -4.309000000    -2.349000000
O     2.492000000    -3.792000000    -1.707000000
H     2.001000000    -1.743000000    -1.886000000
C     4.652000000    -1.320000000    -1.178000000
C     4.940000000    -2.748000000    -0.644000000
H     5.865000000    -2.667000000    -0.070000000
H     5.010000000    -3.524000000    -1.409000000
C     3.717000000    -3.171000000     0.254000000
C     2.549000000    -3.641000000    -0.323000000
C     1.404000000    -3.897000000     0.353000000
H     0.429000000    -4.087000000    -0.091000000
C     1.460000000    -3.834000000     1.716000000
O     0.357000000    -4.126000000     2.412000000
C    -0.590000000    -3.112000000     2.690000000
H    -0.435000000    -2.243000000     2.033000000
C    -2.002000000    -3.582000000     2.510000000
C    -3.020000000    -3.047000000     3.242000000
H    -2.798000000    -2.301000000     4.000000000
C    -2.389000000    -4.478000000     1.554000000
H    -1.565000000    -4.835000000     0.941000000
C    -3.737000000    -4.818000000     1.314000000
O    -4.056000000    -5.676000000     0.310000000
C    -4.806000000    -4.276000000     2.034000000
H    -5.818000000    -4.580000000     1.776000000
C    -4.395000000    -3.421000000     3.055000000
O    -5.377000000    -2.791000000     3.764000000
C    -5.151000000    -1.628000000     4.525000000
C    -5.375000000    -0.439000000     3.819000000
H    -5.604000000    -0.362000000     2.759000000
C    -4.999000000    -1.673000000     5.890000000
H    -4.972000000    -2.688000000     6.277000000
C    -4.924000000    -0.514000000     6.627000000
H    -4.727000000    -0.503000000     7.696000000
C    -4.899000000     0.748000000     5.939000000
H    -4.770000000     1.687000000     6.471000000
C    -5.182000000     0.745000000     4.559000000
O    -5.381000000     1.928000000     3.902000000
C    -4.253000000     2.696000000     3.527000000
C    -4.410000000     3.964000000     2.907000000
H    -5.437000000     4.267000000     2.719000000
C    -3.362000000     4.715000000     2.385000000
O    -3.488000000     5.886000000     1.633000000
C    -2.819000000     6.229000000     0.493000000
C    -2.763000000     5.414000000    -0.641000000
H    -3.322000000     4.489000000    -0.747000000
C    -2.230000000     7.484000000     0.481000000
H    -2.460000000     8.066000000     1.370000000
C    -1.388000000     7.921000000    -0.585000000
H    -0.829000000     8.850000000    -0.663000000
C    -1.473000000     7.126000000    -1.762000000
H    -0.967000000     7.456000000    -2.666000000
C    -2.084000000     5.906000000    -1.747000000
O    -1.993000000     5.167000000    -2.867000000
C    -0.827000000     4.547000000    -3.347000000
C    -0.653000000     4.422000000    -4.683000000
H    -1.421000000     4.820000000    -5.342000000
C     0.427000000     3.659000000    -5.124000000
O     0.657000000     3.456000000    -6.482000000
C     1.113000000     2.210000000    -6.888000000
C     0.315000000     1.084000000    -6.505000000
H    -0.621000000     1.159000000    -5.956000000
C     2.067000000     2.085000000    -7.941000000
H     2.662000000     2.873000000    -8.396000000
C     2.329000000     0.822000000    -8.419000000
H     3.191000000     0.723000000    -9.074000000
C     1.631000000    -0.304000000    -7.935000000
H     1.727000000    -1.261000000    -8.441000000
C     0.682000000    -0.192000000    -6.955000000
O    -0.005000000    -1.305000000    -6.607000000
C     0.042000000    -2.130000000    -5.486000000
C    -1.017000000    -3.021000000    -5.270000000
H    -1.828000000    -3.089000000    -5.989000000
C    -0.969000000    -3.861000000    -4.124000000
O    -2.047000000    -4.764000000    -3.897000000
C    -2.131000000    -5.593000000    -2.800000000
C    -1.500000000    -6.847000000    -2.718000000
H    -0.762000000    -7.255000000    -3.404000000
C    -1.796000000    -7.753000000    -1.667000000
H    -1.229000000    -8.677000000    -1.596000000
C    -2.608000000    -7.326000000    -0.606000000
H    -2.833000000    -8.007000000     0.211000000
C    -3.191000000    -6.065000000    -0.671000000
C    -2.918000000    -5.201000000    -1.717000000
H    -3.358000000    -4.216000000    -1.587000000
C    -3.251000000     0.721000000     0.288000000
H    -3.957000000     1.519000000     0.501000000
C    -1.901000000     0.956000000     0.328000000
H    -1.461000000     1.949000000     0.357000000
C    -1.016000000    -0.055000000    -0.032000000
H     0.034000000     0.054000000     0.045000000
C    -1.546000000    -1.311000000    -0.393000000
H    -0.933000000    -2.075000000    -0.864000000
C    -2.888000000    -1.527000000    -0.319000000
H    -3.341000000    -2.502000000    -0.481000000
C    -3.803000000    -0.529000000     0.027000000
C    -5.317000000    -0.743000000     0.145000000
O    -5.684000000    -1.890000000     0.156000000
O    -6.122000000     0.181000000     0.271000000
O    -3.100000000     1.383000000    -2.932000000
H    -3.034000000     0.634000000    -3.524000000
H    -2.873000000     1.029000000    -2.072000000
O    -9.788000000    -1.899000000    -2.844000000
H    -9.296000000    -2.515000000    -2.302000000
H    -9.347000000    -1.059000000    -2.714000000
O    -8.044000000     3.742000000     2.879000000
H    -8.096000000     4.697000000     2.833000000
H    -7.570000000     3.489000000     2.086000000
O    -6.471000000     3.063000000     0.866000000
H    -6.258000000     2.137000000     0.975000000
H    -6.031000000     3.318000000     0.055000000
O    -8.490000000     0.373000000    -1.596000000
H    -9.258000000     0.785000000    -1.200000000
H    -7.820000000     0.411000000    -0.914000000
O    -9.975000000    -0.637000000     3.909000000
H    -9.741000000     0.287000000     3.995000000
H    -9.294000000    -1.005000000     3.347000000
O   -10.657000000     0.737000000     0.410000000
H    -9.987000000     0.694000000     1.091000000
H   -11.281000000     0.050000000     0.643000000
O    -5.692000000    -3.020000000    -2.190000000
H    -5.790000000    -2.216000000    -2.700000000
H    -5.576000000    -2.719000000    -1.288000000
O    -7.610000000    -4.573000000     3.943000000
H    -6.759000000    -4.705000000     4.362000000
H    -7.417000000    -4.038000000     3.174000000
O    -5.199000000    -4.286000000    -4.684000000
H    -5.588000000    -3.576000000    -4.173000000
H    -4.334000000    -4.414000000    -4.296000000
O    -5.078000000     2.998000000    -1.829000000
H    -5.724000000     3.022000000    -2.535000000
H    -4.257000000     2.764000000    -2.263000000
O    -8.145000000    -3.614000000    -1.241000000
H    -7.835000000    -3.573000000    -0.337000000
H    -7.386000000    -3.361000000    -1.767000000
O    -7.845000000    -2.012000000     1.438000000
H    -6.976000000    -2.110000000     1.049000000
H    -7.939000000    -1.070000000     1.581000000
O    -7.939000000     0.838000000     2.330000000
H    -8.014000000     1.671000000     2.796000000
H    -7.447000000     1.051000000     1.537000000
O   -10.334000000    -3.433000000     1.803000000
H   -10.347000000    -4.290000000     2.230000000
H    -9.408000000    -3.271000000     1.621000000
O    -3.474000000    -0.602000000    -4.678000000
H    -3.762000000    -1.380000000    -4.201000000
H    -3.959000000    -0.634000000    -5.502000000
O    -9.195000000     1.961000000    -3.685000000
H    -8.659000000     1.445000000    -3.084000000
H   -10.022000000     2.089000000    -3.220000000
O    -4.740000000     2.013000000    -5.189000000
H    -4.971000000     1.085000000    -5.210000000
H    -4.023000000     2.068000000    -4.558000000
O    -6.590000000    -0.974000000    -3.572000000
H    -7.336000000    -0.496000000    -3.210000000
H    -6.493000000    -0.629000000    -4.460000000
