215
-1439.81512
C    -1.980000000     4.105000000     1.769000000
H    -1.112000000     4.639000000     1.388000000
C    -1.834000000     3.044000000     2.693000000
C    -2.946000000     2.254000000     2.992000000
H    -2.857000000     1.417000000     3.680000000
C    -0.414000000     2.600000000     3.186000000
O     0.566000000     3.763000000     3.309000000
H    -0.128000000     2.033000000     2.287000000
O    -0.478000000     1.942000000     4.454000000
C     0.113000000     0.672000000     4.549000000
C    -0.671000000    -0.504000000     4.370000000
H    -1.730000000    -0.417000000     4.143000000
C    -0.044000000    -1.726000000     4.308000000
O    -0.829000000    -2.849000000     4.049000000
C     1.385000000    -1.778000000     4.410000000
C     2.083000000    -3.180000000     4.138000000
H     3.023000000    -3.272000000     4.686000000
C     2.227000000    -3.451000000     2.666000000
C     3.447000000    -3.177000000     2.045000000
H     4.258000000    -2.719000000     2.605000000
H     1.462000000    -3.998000000     4.511000000
C     2.123000000    -0.630000000     4.441000000
H     3.207000000    -0.703000000     4.436000000
C     1.487000000     0.605000000     4.554000000
C     2.371000000     1.834000000     4.585000000
H     3.368000000     1.521000000     4.902000000
H     1.948000000     2.528000000     5.314000000
C     2.599000000     2.503000000     3.257000000
C     3.691000000     2.066000000     2.511000000
H     4.380000000     1.334000000     2.925000000
C     1.732000000     3.483000000     2.700000000
C     2.084000000     4.104000000     1.455000000
H     1.523000000     4.908000000     0.985000000
C     3.148000000     3.617000000     0.668000000
O     3.249000000     3.997000000    -0.580000000
C     2.722000000     3.183000000    -1.614000000
C     1.913000000     3.950000000    -2.596000000
C     1.555000000     3.297000000    -3.733000000
H     1.931000000     2.299000000    -3.944000000
C     1.360000000     5.184000000    -2.325000000
H     1.671000000     5.717000000    -1.430000000
O     3.751000000     2.274000000    -2.216000000
H     2.044000000     2.498000000    -1.083000000
C     3.929000000     2.615000000     1.178000000
C     5.123000000     2.159000000     0.377000000
H     5.975000000     1.969000000     1.034000000
H     5.478000000     2.997000000    -0.227000000
C     4.735000000     0.860000000    -0.404000000
C     4.874000000    -0.427000000     0.083000000
H     5.383000000    -0.634000000     1.021000000
C     4.056000000     1.013000000    -1.678000000
C     3.678000000    -0.121000000    -2.354000000
H     3.134000000    -0.100000000    -3.294000000
C     4.048000000    -1.408000000    -1.860000000
O     3.531000000    -2.436000000    -2.574000000
C     2.306000000    -2.937000000    -2.072000000
C     1.337000000    -3.204000000    -3.239000000
C     1.084000000    -2.218000000    -4.196000000
H     1.725000000    -1.350000000    -4.327000000
C     0.570000000    -4.384000000    -3.251000000
H     0.722000000    -5.183000000    -2.530000000
O     2.590000000    -4.162000000    -1.387000000
H     1.836000000    -2.194000000    -1.411000000
C     4.587000000    -1.552000000    -0.614000000
C     4.844000000    -2.988000000    -0.059000000
H     5.747000000    -2.844000000     0.538000000
H     5.039000000    -3.613000000    -0.932000000
C     3.616000000    -3.494000000     0.684000000
C     2.602000000    -4.083000000    -0.014000000
C     1.437000000    -4.415000000     0.611000000
H     0.692000000    -5.052000000     0.142000000
C     1.238000000    -4.133000000     1.937000000
O    -0.019000000    -4.356000000     2.492000000
C    -0.939000000    -3.261000000     2.705000000
H    -0.493000000    -2.535000000     2.010000000
C    -2.362000000    -3.636000000     2.266000000
C    -3.437000000    -3.204000000     3.024000000
H    -3.270000000    -2.688000000     3.966000000
C    -2.488000000    -4.359000000     1.123000000
H    -1.629000000    -4.740000000     0.577000000
C    -3.830000000    -4.646000000     0.681000000
O    -4.063000000    -5.404000000    -0.468000000
C    -4.898000000    -4.192000000     1.390000000
H    -5.895000000    -4.326000000     0.977000000
C    -4.729000000    -3.464000000     2.578000000
O    -5.756000000    -2.835000000     3.198000000
C    -5.814000000    -1.574000000     3.728000000
C    -5.627000000    -0.549000000     2.792000000
H    -5.662000000    -0.681000000     1.714000000
C    -5.912000000    -1.310000000     5.060000000
H    -6.222000000    -2.125000000     5.708000000
C    -5.798000000    -0.017000000     5.553000000
H    -5.903000000     0.115000000     6.627000000
C    -5.466000000     0.968000000     4.683000000
H    -5.433000000     1.969000000     5.105000000
C    -5.558000000     0.751000000     3.312000000
O    -5.315000000     1.771000000     2.433000000
C    -4.169000000     2.553000000     2.363000000
C    -4.294000000     3.607000000     1.450000000
H    -5.214000000     3.683000000     0.876000000
C    -3.192000000     4.363000000     1.086000000
O    -3.453000000     5.367000000     0.165000000
C    -2.589000000     6.340000000    -0.251000000
C    -1.747000000     6.076000000    -1.328000000
H    -1.743000000     5.097000000    -1.800000000
C    -2.807000000     7.602000000     0.220000000
H    -3.568000000     7.814000000     0.967000000
C    -2.143000000     8.693000000    -0.362000000
H    -2.405000000     9.689000000    -0.017000000
C    -1.271000000     8.475000000    -1.436000000
H    -0.741000000     9.298000000    -1.909000000
C    -0.924000000     7.126000000    -1.767000000
O    -0.086000000     6.973000000    -2.862000000
C     0.515000000     5.808000000    -3.216000000
C     0.238000000     5.247000000    -4.426000000
H    -0.405000000     5.830000000    -5.080000000
C     0.656000000     3.949000000    -4.652000000
O     0.327000000     3.344000000    -5.826000000
C     0.811000000     2.086000000    -6.156000000
C    -0.060000000     1.013000000    -6.055000000
H    -1.082000000     1.150000000    -5.712000000
C     2.133000000     2.011000000    -6.619000000
H     2.750000000     2.878000000    -6.840000000
C     2.629000000     0.729000000    -6.786000000
H     3.671000000     0.521000000    -7.012000000
C     1.752000000    -0.392000000    -6.628000000
H     2.152000000    -1.387000000    -6.804000000
C     0.388000000    -0.277000000    -6.188000000
O    -0.402000000    -1.334000000    -5.959000000
C     0.007000000    -2.343000000    -5.087000000
C    -0.751000000    -3.502000000    -5.079000000
H    -1.629000000    -3.512000000    -5.719000000
C    -0.456000000    -4.542000000    -4.208000000
O    -1.279000000    -5.622000000    -4.292000000
C    -1.661000000    -6.227000000    -3.129000000
C    -0.912000000    -7.167000000    -2.469000000
H     0.031000000    -7.446000000    -2.934000000
C    -1.210000000    -7.612000000    -1.165000000
H    -0.609000000    -8.307000000    -0.584000000
C    -2.240000000    -6.965000000    -0.526000000
H    -2.451000000    -7.202000000     0.514000000
C    -3.083000000    -6.100000000    -1.162000000
C    -2.834000000    -5.725000000    -2.526000000
H    -3.497000000    -4.991000000    -2.976000000
C    -3.087000000     0.179000000    -0.339000000
H    -3.840000000     0.897000000    -0.022000000
C    -1.720000000     0.470000000    -0.133000000
H    -1.413000000     1.373000000     0.389000000
C    -0.756000000    -0.521000000    -0.262000000
H     0.338000000    -0.350000000    -0.078000000
C    -1.140000000    -1.755000000    -0.823000000
H    -0.519000000    -2.646000000    -0.849000000
C    -2.491000000    -2.004000000    -1.147000000
H    -2.766000000    -2.936000000    -1.634000000
C    -3.499000000    -1.037000000    -0.910000000
C    -4.927000000    -1.282000000    -1.287000000
O    -5.154000000    -2.215000000    -2.079000000
O    -5.823000000    -0.497000000    -0.913000000
O    -3.360000000     2.643000000    -1.858000000
H    -3.605000000     1.949000000    -2.469000000
H    -2.759000000     2.221000000    -1.244000000
O    -7.176000000     1.963000000    -2.068000000
H    -8.026000000     1.982000000    -1.627000000
H    -6.737000000     1.192000000    -1.707000000
O    -6.504000000     3.583000000    -4.050000000
H    -5.902000000     4.228000000    -3.679000000
H    -6.984000000     3.242000000    -3.295000000
O    -9.643000000    -0.545000000     2.888000000
H    -9.319000000     0.291000000     3.225000000
H    -9.226000000    -0.636000000     2.031000000
O    -6.584000000    -1.903000000    -6.883000000
H    -7.201000000    -1.283000000    -6.494000000
H    -5.735000000    -1.661000000    -6.510000000
O    -8.747000000    -0.760000000    -5.924000000
H    -8.514000000    -0.738000000    -4.996000000
H    -9.563000000    -1.260000000    -5.955000000
O    -4.379000000    -1.944000000    -4.729000000
H    -4.115000000    -1.024000000    -4.687000000
H    -4.778000000    -2.117000000    -3.877000000
O    -4.334000000    -3.995000000    -6.850000000
H    -4.155000000    -3.218000000    -6.321000000
H    -3.853000000    -3.846000000    -7.664000000
O    -5.367000000     5.102000000    -2.079000000
H    -4.831000000     4.449000000    -1.629000000
H    -4.952000000     5.939000000    -1.867000000
O    -6.444000000    -6.917000000    -1.650000000
H    -6.239000000    -5.985000000    -1.567000000
H    -5.964000000    -7.198000000    -2.429000000
O    -9.847000000     0.880000000    -2.951000000
H   -10.326000000     0.596000000    -2.173000000
H   -10.420000000     0.647000000    -3.682000000
O    -7.272000000    -3.381000000    -0.793000000
H    -6.544000000    -2.964000000    -1.254000000
H    -7.660000000    -2.678000000    -0.273000000
O    -8.028000000    -0.204000000     0.514000000
H    -8.030000000     0.684000000     0.872000000
H    -7.131000000    -0.338000000     0.208000000
O    -7.979000000    -1.247000000    -3.131000000
H    -8.218000000    -0.381000000    -2.802000000
H    -7.092000000    -1.393000000    -2.800000000
O    -9.423000000    -4.929000000    -1.222000000
H    -9.686000000    -5.507000000    -0.505000000
H    -8.530000000    -4.663000000    -1.000000000
O    -9.554000000    -3.725000000    -3.661000000
H    -9.623000000    -3.903000000    -2.723000000
H    -8.701000000    -3.305000000    -3.763000000
O    -4.680000000     0.704000000    -3.825000000
H    -5.614000000     0.916000000    -3.811000000
H    -4.369000000     1.048000000    -4.662000000
O    -3.110000000     4.182000000    -4.010000000
H    -3.740000000     3.771000000    -4.602000000
H    -3.046000000     3.576000000    -3.271000000
O    -6.641000000    -4.806000000    -4.438000000
H    -5.914000000    -4.199000000    -4.302000000
H    -6.226000000    -5.667000000    -4.496000000
