215
-1443.85408
C    -2.055000000     3.731000000     2.353000000
H    -1.274000000     4.001000000     1.647000000
C    -1.590000000     2.950000000     3.400000000
C    -2.548000000     2.479000000     4.284000000
H    -2.295000000     1.719000000     5.019000000
C    -0.159000000     2.449000000     3.507000000
O     0.825000000     3.468000000     3.161000000
H    -0.232000000     1.720000000     2.687000000
O     0.049000000     1.798000000     4.746000000
C     0.636000000     0.578000000     4.692000000
C    -0.095000000    -0.640000000     4.747000000
H    -1.123000000    -0.661000000     5.101000000
C     0.543000000    -1.830000000     4.368000000
O    -0.310000000    -2.838000000     4.120000000
C     1.922000000    -1.839000000     4.092000000
C     2.666000000    -3.070000000     3.633000000
H     3.739000000    -3.003000000     3.823000000
C     2.572000000    -3.289000000     2.114000000
C     3.633000000    -2.921000000     1.269000000
H     4.532000000    -2.438000000     1.642000000
H     2.303000000    -3.962000000     4.147000000
C     2.615000000    -0.660000000     4.152000000
H     3.672000000    -0.639000000     3.900000000
C     2.026000000     0.506000000     4.408000000
C     2.903000000     1.781000000     4.264000000
H     3.867000000     1.601000000     4.744000000
H     2.519000000     2.637000000     4.823000000
C     2.997000000     2.351000000     2.912000000
C     4.085000000     2.085000000     2.123000000
H     4.899000000     1.463000000     2.487000000
C     1.982000000     3.222000000     2.502000000
C     2.196000000     3.928000000     1.302000000
H     1.633000000     4.827000000     1.065000000
C     3.156000000     3.524000000     0.420000000
O     3.007000000     4.103000000    -0.863000000
C     2.508000000     3.257000000    -1.865000000
C     1.550000000     3.911000000    -2.813000000
C     1.467000000     3.496000000    -4.173000000
H     2.129000000     2.713000000    -4.534000000
C     0.660000000     5.000000000    -2.426000000
H     0.757000000     5.403000000    -1.421000000
O     3.605000000     2.608000000    -2.553000000
H     1.896000000     2.521000000    -1.323000000
C     4.141000000     2.572000000     0.780000000
C     5.221000000     2.107000000    -0.144000000
H     6.148000000     1.757000000     0.314000000
H     5.560000000     3.026000000    -0.627000000
C     4.840000000     0.984000000    -1.125000000
C     4.987000000    -0.342000000    -0.738000000
H     5.412000000    -0.537000000     0.243000000
C     3.995000000     1.240000000    -2.195000000
C     3.479000000     0.165000000    -2.983000000
H     2.828000000     0.378000000    -3.826000000
C     3.765000000    -1.148000000    -2.657000000
O     3.142000000    -2.187000000    -3.283000000
C     1.992000000    -2.872000000    -2.640000000
C     0.873000000    -3.084000000    -3.659000000
C     0.655000000    -2.075000000    -4.572000000
H     1.386000000    -1.276000000    -4.663000000
C     0.008000000    -4.117000000    -3.535000000
H     0.223000000    -4.920000000    -2.835000000
O     2.430000000    -4.076000000    -1.962000000
H     1.675000000    -2.106000000    -1.917000000
C     4.489000000    -1.373000000    -1.455000000
C     4.677000000    -2.817000000    -0.941000000
H     5.524000000    -2.737000000    -0.256000000
H     5.019000000    -3.441000000    -1.769000000
C     3.546000000    -3.232000000    -0.076000000
C     2.494000000    -3.969000000    -0.596000000
C     1.436000000    -4.281000000     0.213000000
H     0.652000000    -4.919000000    -0.186000000
C     1.445000000    -3.931000000     1.553000000
O     0.339000000    -4.275000000     2.314000000
C    -0.462000000    -3.098000000     2.711000000
H    -0.200000000    -2.149000000     2.221000000
C    -1.877000000    -3.473000000     2.392000000
C    -2.890000000    -2.694000000     2.985000000
H    -2.637000000    -1.795000000     3.540000000
C    -2.219000000    -4.369000000     1.383000000
H    -1.422000000    -4.747000000     0.748000000
C    -3.568000000    -4.698000000     1.188000000
O    -3.981000000    -5.643000000     0.252000000
C    -4.542000000    -3.961000000     1.821000000
H    -5.577000000    -4.132000000     1.536000000
C    -4.198000000    -2.889000000     2.666000000
O    -5.244000000    -2.051000000     3.029000000
C    -5.195000000    -1.196000000     4.100000000
C    -5.063000000     0.194000000     3.950000000
H    -4.744000000     0.535000000     2.968000000
C    -5.526000000    -1.749000000     5.370000000
H    -5.624000000    -2.821000000     5.522000000
C    -5.596000000    -0.904000000     6.462000000
H    -5.751000000    -1.186000000     7.500000000
C    -5.377000000     0.485000000     6.311000000
H    -5.386000000     1.165000000     7.159000000
C    -5.153000000     1.013000000     5.042000000
O    -4.943000000     2.342000000     4.839000000
C    -3.912000000     2.866000000     4.209000000
C    -4.285000000     3.652000000     3.130000000
H    -5.293000000     4.015000000     2.943000000
C    -3.383000000     4.149000000     2.221000000
O    -3.821000000     4.925000000     1.141000000
C    -3.004000000     5.829000000     0.469000000
C    -2.409000000     5.494000000    -0.776000000
H    -2.731000000     4.607000000    -1.314000000
C    -2.776000000     7.091000000     0.993000000
H    -3.276000000     7.358000000     1.921000000
C    -1.845000000     8.001000000     0.367000000
H    -1.512000000     8.868000000     0.931000000
C    -1.335000000     7.706000000    -0.862000000
H    -0.694000000     8.415000000    -1.379000000
C    -1.626000000     6.456000000    -1.462000000
O    -1.357000000     6.239000000    -2.840000000
C    -0.325000000     5.481000000    -3.276000000
C    -0.234000000     5.079000000    -4.621000000
H    -0.968000000     5.519000000    -5.291000000
C     0.566000000     4.051000000    -5.043000000
O     0.427000000     3.565000000    -6.357000000
C     0.714000000     2.253000000    -6.636000000
C    -0.269000000     1.247000000    -6.439000000
H    -1.235000000     1.444000000    -5.982000000
C     1.901000000     1.917000000    -7.326000000
H     2.627000000     2.709000000    -7.493000000
C     2.167000000     0.553000000    -7.510000000
H     3.145000000     0.268000000    -7.889000000
C     1.267000000    -0.457000000    -7.106000000
H     1.617000000    -1.483000000    -7.174000000
C     0.036000000    -0.069000000    -6.623000000
O    -0.865000000    -1.073000000    -6.198000000
C    -0.524000000    -2.115000000    -5.334000000
C    -1.358000000    -3.202000000    -5.256000000
H    -2.307000000    -3.098000000    -5.776000000
C    -1.135000000    -4.190000000    -4.360000000
O    -2.158000000    -5.103000000    -4.147000000
C    -2.261000000    -5.806000000    -2.955000000
C    -1.642000000    -7.039000000    -2.896000000
H    -1.198000000    -7.525000000    -3.761000000
C    -1.689000000    -7.771000000    -1.711000000
H    -1.363000000    -8.806000000    -1.658000000
C    -2.436000000    -7.270000000    -0.629000000
H    -2.660000000    -7.779000000     0.305000000
C    -3.129000000    -6.103000000    -0.780000000
C    -2.964000000    -5.287000000    -1.860000000
H    -3.529000000    -4.369000000    -2.000000000
C    -3.143000000     0.935000000    -0.045000000
H    -3.686000000     1.865000000     0.106000000
C    -1.754000000     1.048000000     0.101000000
H    -1.333000000     2.046000000     0.193000000
C    -0.974000000    -0.056000000    -0.022000000
H     0.116000000     0.043000000     0.053000000
C    -1.584000000    -1.297000000    -0.267000000
H    -0.997000000    -2.158000000    -0.577000000
C    -2.955000000    -1.419000000    -0.444000000
H    -3.320000000    -2.361000000    -0.846000000
C    -3.730000000    -0.279000000    -0.377000000
C    -5.226000000    -0.395000000    -0.676000000
O    -5.716000000    -1.488000000    -0.847000000
O    -5.942000000     0.621000000    -0.623000000
O    -1.933000000     2.539000000    -3.350000000
H    -0.983000000     2.441000000    -3.285000000
H    -2.257000000     1.647000000    -3.475000000
O    -9.480000000     3.709000000     0.881000000
H   -10.147000000     3.024000000     0.927000000
H    -8.754000000     3.305000000     0.406000000
O    -8.187000000     1.837000000    -0.869000000
H    -8.890000000     1.208000000    -0.709000000
H    -7.384000000     1.353000000    -0.679000000
O    -5.885000000     1.884000000    -3.047000000
H    -6.744000000     1.673000000    -3.413000000
H    -5.916000000     1.544000000    -2.153000000
O    -8.458000000    -0.184000000     4.389000000
H    -8.844000000     0.575000000     3.951000000
H    -7.562000000    -0.221000000     4.056000000
O    -8.349000000     0.696000000    -3.826000000
H    -8.492000000     0.113000000    -3.081000000
H    -9.201000000     1.105000000    -3.978000000
O    -4.863000000    -2.483000000    -3.115000000
H    -4.722000000    -1.848000000    -3.817000000
H    -5.119000000    -1.953000000    -2.360000000
O    -7.967000000    -3.891000000     3.572000000
H    -7.111000000    -4.220000000     3.845000000
H    -7.822000000    -3.546000000     2.691000000
O    -5.196000000     4.446000000    -1.905000000
H    -5.307000000     3.499000000    -1.983000000
H    -4.253000000     4.586000000    -1.997000000
O    -6.581000000    -4.054000000    -1.529000000
H    -6.251000000    -3.157000000    -1.566000000
H    -6.147000000    -4.439000000    -0.768000000
O    -7.209000000    -2.195000000     1.143000000
H    -6.892000000    -1.921000000     0.283000000
H    -6.509000000    -1.947000000     1.747000000
O    -7.132000000     0.828000000     1.680000000
H    -7.776000000     0.123000000     1.610000000
H    -6.817000000     0.954000000     0.785000000
O    -8.223000000    -1.019000000    -1.716000000
H    -8.647000000    -1.185000000    -0.874000000
H    -7.287000000    -1.098000000    -1.533000000
O    -9.559000000    -4.113000000    -1.409000000
H    -8.605000000    -4.040000000    -1.444000000
H    -9.723000000    -4.776000000    -0.738000000
O   -10.217000000    -2.198000000    -3.527000000
H    -9.706000000    -2.029000000    -2.736000000
H    -9.786000000    -2.950000000    -3.934000000
O    -9.644000000    -0.051000000     0.755000000
H   -10.041000000    -0.743000000     1.284000000
H   -10.270000000     0.672000000     0.797000000
O    -3.908000000     0.109000000    -4.061000000
H    -4.348000000     0.743000000    -3.494000000
H    -3.952000000     0.498000000    -4.935000000
O    -6.755000000    -5.201000000    -3.847000000
H    -6.015000000    -5.807000000    -3.869000000
H    -6.638000000    -4.709000000    -3.034000000
O    -9.484000000     3.305000000    -2.998000000
H    -9.016000000     3.004000000    -2.220000000
H   -10.122000000     2.614000000    -3.177000000
