215
-1450.00465
C    -3.102000000     3.230000000     2.078000000
H    -2.285000000     3.742000000     1.577000000
C    -2.844000000     2.518000000     3.280000000
C    -3.870000000     1.813000000     3.847000000
H    -3.662000000     1.162000000     4.692000000
C    -1.377000000     2.349000000     3.669000000
O    -0.510000000     3.486000000     3.816000000
H    -0.976000000     1.883000000     2.757000000
O    -1.206000000     1.470000000     4.786000000
C    -0.302000000     0.459000000     4.655000000
C    -0.841000000    -0.733000000     4.289000000
H    -1.927000000    -0.766000000     4.251000000
C    -0.013000000    -1.896000000     4.150000000
O    -0.578000000    -3.075000000     3.743000000
C     1.343000000    -1.805000000     4.233000000
C     2.323000000    -3.010000000     4.053000000
H     3.206000000    -2.830000000     4.670000000
C     2.655000000    -3.070000000     2.604000000
C     3.831000000    -2.480000000     2.151000000
H     4.432000000    -1.958000000     2.891000000
H     1.931000000    -3.983000000     4.356000000
C     1.875000000    -0.556000000     4.573000000
H     2.953000000    -0.458000000     4.674000000
C     1.076000000     0.608000000     4.797000000
C     1.742000000     1.967000000     5.055000000
H     2.723000000     1.831000000     5.515000000
H     1.151000000     2.545000000     5.769000000
C     1.816000000     2.779000000     3.799000000
C     3.006000000     2.741000000     3.055000000
H     3.878000000     2.271000000     3.503000000
C     0.745000000     3.454000000     3.213000000
C     0.807000000     3.882000000     1.861000000
H    -0.027000000     4.311000000     1.311000000
C     2.000000000     3.791000000     1.122000000
O     1.907000000     4.275000000    -0.151000000
C     2.005000000     3.399000000    -1.284000000
C     1.157000000     3.980000000    -2.420000000
C     1.403000000     3.595000000    -3.743000000
H     2.331000000     3.052000000    -3.903000000
C     0.041000000     4.769000000    -2.136000000
H    -0.114000000     5.184000000    -1.143000000
O     3.335000000     3.247000000    -1.695000000
H     1.710000000     2.361000000    -1.069000000
C     3.132000000     3.339000000     1.788000000
C     4.381000000     3.230000000     0.999000000
H     5.194000000     3.192000000     1.727000000
H     4.509000000     4.128000000     0.390000000
C     4.530000000     2.074000000     0.028000000
C     4.993000000     0.845000000     0.515000000
H     5.327000000     0.783000000     1.547000000
C     3.953000000     2.134000000    -1.228000000
C     4.054000000     1.089000000    -2.088000000
H     3.702000000     1.271000000    -3.100000000
C     4.392000000    -0.151000000    -1.610000000
O     4.157000000    -1.179000000    -2.488000000
C     3.170000000    -2.155000000    -2.171000000
C     2.307000000    -2.568000000    -3.378000000
C     2.052000000    -1.586000000    -4.405000000
H     2.486000000    -0.592000000    -4.333000000
C     1.595000000    -3.772000000    -3.435000000
H     1.810000000    -4.522000000    -2.679000000
O     3.675000000    -3.197000000    -1.368000000
H     2.429000000    -1.630000000    -1.551000000
C     4.899000000    -0.264000000    -0.298000000
C     5.333000000    -1.579000000     0.347000000
H     6.161000000    -1.501000000     1.055000000
H     5.762000000    -2.076000000    -0.526000000
C     4.180000000    -2.402000000     0.811000000
C     3.334000000    -3.182000000    -0.074000000
C     2.184000000    -3.774000000     0.342000000
H     1.558000000    -4.330000000    -0.351000000
C     1.831000000    -3.755000000     1.679000000
O     0.599000000    -4.275000000     2.009000000
C    -0.449000000    -3.299000000     2.341000000
H    -0.282000000    -2.349000000     1.813000000
C    -1.797000000    -3.654000000     1.649000000
C    -3.031000000    -3.202000000     2.160000000
H    -3.075000000    -2.707000000     3.127000000
C    -1.869000000    -4.330000000     0.417000000
H    -0.913000000    -4.638000000     0.003000000
C    -3.042000000    -4.822000000    -0.101000000
O    -3.148000000    -5.634000000    -1.180000000
C    -4.242000000    -4.383000000     0.373000000
H    -5.187000000    -4.628000000    -0.104000000
C    -4.239000000    -3.611000000     1.500000000
O    -5.479000000    -3.271000000     1.965000000
C    -5.697000000    -2.483000000     3.068000000
C    -5.958000000    -1.200000000     2.913000000
H    -6.108000000    -0.732000000     1.944000000
C    -5.446000000    -3.048000000     4.372000000
H    -5.302000000    -4.120000000     4.483000000
C    -5.386000000    -2.215000000     5.485000000
H    -5.203000000    -2.572000000     6.496000000
C    -5.697000000    -0.833000000     5.311000000
H    -5.693000000    -0.115000000     6.128000000
C    -5.989000000    -0.368000000     4.028000000
O    -6.165000000     0.954000000     3.739000000
C    -5.175000000     1.850000000     3.371000000
C    -5.343000000     2.471000000     2.140000000
H    -6.327000000     2.449000000     1.678000000
C    -4.333000000     3.221000000     1.507000000
O    -4.527000000     3.834000000     0.305000000
C    -3.954000000     4.978000000    -0.133000000
C    -3.156000000     4.957000000    -1.269000000
H    -2.881000000     4.036000000    -1.778000000
C    -4.091000000     6.146000000     0.584000000
H    -4.599000000     6.209000000     1.542000000
C    -3.520000000     7.295000000     0.082000000
H    -3.779000000     8.172000000     0.670000000
C    -2.802000000     7.275000000    -1.078000000
H    -2.477000000     8.226000000    -1.491000000
C    -2.585000000     6.130000000    -1.746000000
O    -1.891000000     6.015000000    -2.918000000
C    -0.852000000     5.098000000    -3.119000000
C    -0.575000000     4.798000000    -4.426000000
H    -1.194000000     5.090000000    -5.270000000
C     0.589000000     4.033000000    -4.766000000
O     0.813000000     3.766000000    -6.020000000
C     1.538000000     2.634000000    -6.276000000
C     0.902000000     1.389000000    -6.270000000
H    -0.150000000     1.346000000    -5.999000000
C     2.790000000     2.764000000    -6.829000000
H     3.180000000     3.765000000    -6.989000000
C     3.498000000     1.639000000    -7.215000000
H     4.436000000     1.819000000    -7.734000000
C     2.961000000     0.342000000    -7.104000000
H     3.540000000    -0.497000000    -7.483000000
C     1.626000000     0.244000000    -6.613000000
O     1.100000000    -1.024000000    -6.583000000
C     1.265000000    -1.914000000    -5.509000000
C     0.686000000    -3.158000000    -5.565000000
H     0.046000000    -3.286000000    -6.434000000
C     0.845000000    -4.079000000    -4.525000000
O     0.168000000    -5.221000000    -4.536000000
C    -0.319000000    -5.910000000    -3.452000000
C     0.297000000    -7.100000000    -3.012000000
H     1.245000000    -7.389000000    -3.457000000
C    -0.328000000    -7.898000000    -2.041000000
H     0.064000000    -8.887000000    -1.818000000
C    -1.417000000    -7.384000000    -1.392000000
H    -1.894000000    -7.985000000    -0.623000000
C    -1.998000000    -6.135000000    -1.768000000
C    -1.505000000    -5.471000000    -2.819000000
H    -1.901000000    -4.514000000    -3.151000000
C    -3.331000000    -0.227000000     0.012000000
H    -4.195000000     0.281000000     0.434000000
C    -2.066000000     0.234000000     0.381000000
H    -1.911000000     0.933000000     1.198000000
C    -0.896000000    -0.275000000    -0.211000000
H     0.027000000     0.200000000    -0.012000000
C    -1.056000000    -1.123000000    -1.269000000
H    -0.155000000    -1.539000000    -1.710000000
C    -2.288000000    -1.634000000    -1.684000000
H    -2.277000000    -2.390000000    -2.465000000
C    -3.440000000    -1.117000000    -1.098000000
C    -4.826000000    -1.590000000    -1.525000000
O    -4.848000000    -2.327000000    -2.515000000
O    -5.869000000    -1.061000000    -1.041000000
O    -2.600000000     2.583000000    -5.421000000
H    -3.253000000     1.910000000    -5.611000000
H    -2.462000000     2.524000000    -4.476000000
O    -7.644000000    -5.602000000    -5.349000000
H    -7.274000000    -5.174000000    -6.121000000
H    -7.069000000    -5.337000000    -4.630000000
O    -2.726000000     1.232000000    -2.970000000
H    -2.682000000     0.576000000    -3.665000000
H    -2.600000000     0.734000000    -2.162000000
O    -4.093000000    -5.983000000    -5.329000000
H    -4.375000000    -6.700000000    -4.761000000
H    -4.466000000    -6.194000000    -6.184000000
O    -8.973000000    -4.051000000    -2.226000000
H    -8.087000000    -4.359000000    -2.416000000
H    -9.005000000    -3.989000000    -1.271000000
O    -3.719000000    -3.460000000    -4.639000000
H    -4.153000000    -3.051000000    -3.890000000
H    -4.011000000    -4.372000000    -4.615000000
O    -9.259000000     1.589000000     1.742000000
H    -9.236000000     1.017000000     0.975000000
H    -9.105000000     1.002000000     2.482000000
O    -3.260000000    -6.344000000     2.503000000
H    -2.941000000    -7.130000000     2.058000000
H    -3.714000000    -5.850000000     1.820000000
O    -5.478000000     2.397000000    -3.807000000
H    -5.846000000     2.711000000    -4.633000000
H    -4.612000000     2.064000000    -4.043000000
O    -6.352000000    -4.623000000    -2.951000000
H    -5.756000000    -5.270000000    -2.574000000
H    -5.917000000    -3.783000000    -2.804000000
O    -9.766000000    -1.350000000    -2.245000000
H    -9.539000000    -2.277000000    -2.176000000
H    -9.153000000    -0.909000000    -1.657000000
O    -8.153000000    -3.332000000     0.489000000
H    -7.634000000    -2.578000000     0.209000000
H    -7.757000000    -3.600000000     1.318000000
O    -6.286000000    -2.687000000    -5.703000000
H    -5.546000000    -2.863000000    -5.121000000
H    -6.676000000    -1.883000000    -5.359000000
O    -9.924000000     0.059000000    -4.528000000
H    -9.566000000    -0.372000000    -3.753000000
H   -10.242000000    -0.659000000    -5.076000000
O    -6.543000000     2.512000000    -1.125000000
H    -5.869000000     2.153000000    -0.548000000
H    -6.234000000     2.310000000    -2.008000000
O    -6.645000000    -0.315000000    -4.036000000
H    -6.893000000     0.532000000    -3.665000000
H    -6.363000000    -0.834000000    -3.283000000
O    -2.952000000    -2.332000000    -7.552000000
H    -3.362000000    -2.710000000    -6.775000000
H    -3.427000000    -1.514000000    -7.700000000
O    -3.920000000     0.182000000    -5.369000000
H    -4.171000000    -0.058000000    -6.261000000
H    -4.525000000    -0.306000000    -4.810000000
O    -8.045000000     0.093000000    -0.554000000
H    -7.223000000    -0.385000000    -0.658000000
H    -7.803000000     1.013000000    -0.661000000
