215
-1466.84775
C    -2.522000000     3.371000000     2.670000000
H    -1.867000000     4.211000000     2.456000000
C    -2.079000000     2.198000000     3.383000000
C    -2.924000000     1.182000000     3.699000000
H    -2.559000000     0.288000000     4.198000000
C    -0.554000000     2.050000000     3.627000000
O     0.131000000     3.297000000     3.603000000
H    -0.269000000     1.504000000     2.716000000
O    -0.192000000     1.240000000     4.816000000
C     0.785000000     0.269000000     4.465000000
C     0.280000000    -1.046000000     4.319000000
H    -0.778000000    -1.138000000     4.554000000
C     1.131000000    -2.069000000     3.966000000
O     0.665000000    -3.309000000     3.773000000
C     2.524000000    -1.759000000     3.776000000
C     3.571000000    -2.800000000     3.340000000
H     4.626000000    -2.642000000     3.571000000
C     3.532000000    -2.934000000     1.775000000
C     4.327000000    -2.194000000     0.954000000
H     5.160000000    -1.678000000     1.424000000
H     3.305000000    -3.769000000     3.769000000
C     3.036000000    -0.477000000     4.029000000
H     4.085000000    -0.237000000     3.878000000
C     2.139000000     0.541000000     4.226000000
C     2.728000000     1.943000000     4.366000000
H     3.812000000     1.964000000     4.491000000
H     2.253000000     2.496000000     5.179000000
C     2.464000000     2.717000000     3.069000000
C     3.553000000     2.785000000     2.225000000
H     4.423000000     2.186000000     2.483000000
C     1.251000000     3.314000000     2.806000000
C     1.131000000     3.994000000     1.589000000
H     0.166000000     4.432000000     1.346000000
C     2.231000000     4.062000000     0.738000000
O     1.969000000     4.657000000    -0.459000000
C     1.535000000     3.785000000    -1.523000000
C     0.357000000     4.314000000    -2.300000000
C     0.027000000     3.692000000    -3.514000000
H     0.723000000     2.947000000    -3.891000000
C    -0.477000000     5.292000000    -1.744000000
H    -0.321000000     5.693000000    -0.745000000
O     2.687000000     3.493000000    -2.308000000
H     1.327000000     2.798000000    -1.085000000
C     3.383000000     3.414000000     1.002000000
C     4.431000000     3.336000000    -0.136000000
H     5.448000000     3.089000000     0.176000000
H     4.508000000     4.296000000    -0.649000000
C     4.174000000     2.143000000    -1.019000000
C     4.883000000     0.964000000    -0.854000000
H     5.639000000     0.888000000    -0.076000000
C     3.385000000     2.264000000    -2.139000000
C     3.155000000     1.222000000    -2.988000000
H     2.531000000     1.389000000    -3.862000000
C     3.766000000    -0.006000000    -2.811000000
O     3.405000000    -1.141000000    -3.561000000
C     2.355000000    -1.979000000    -2.976000000
C     1.215000000    -2.287000000    -3.902000000
C     0.930000000    -1.491000000    -5.022000000
H     1.639000000    -0.719000000    -5.311000000
C     0.407000000    -3.328000000    -3.571000000
H     0.447000000    -3.961000000    -2.689000000
O     2.951000000    -3.148000000    -2.381000000
H     1.957000000    -1.363000000    -2.155000000
C     4.654000000    -0.108000000    -1.741000000
C     5.253000000    -1.443000000    -1.278000000
H     6.182000000    -1.270000000    -0.730000000
H     5.513000000    -2.035000000    -2.158000000
C     4.242000000    -2.263000000    -0.439000000
C     3.332000000    -3.094000000    -1.026000000
C     2.502000000    -3.790000000    -0.191000000
H     1.716000000    -4.378000000    -0.657000000
C     2.572000000    -3.742000000     1.223000000
O     1.558000000    -4.336000000     1.910000000
C     0.404000000    -3.669000000     2.421000000
H     0.193000000    -2.752000000     1.851000000
C    -0.892000000    -4.363000000     2.211000000
C    -1.944000000    -4.070000000     3.040000000
H    -1.839000000    -3.323000000     3.822000000
C    -0.988000000    -5.382000000     1.297000000
H    -0.095000000    -5.671000000     0.748000000
C    -2.256000000    -5.975000000     1.028000000
O    -2.461000000    -6.970000000     0.090000000
C    -3.370000000    -5.610000000     1.752000000
H    -4.321000000    -6.118000000     1.618000000
C    -3.164000000    -4.704000000     2.801000000
O    -4.269000000    -4.321000000     3.544000000
C    -4.429000000    -3.132000000     4.249000000
C    -4.410000000    -1.900000000     3.629000000
H    -4.142000000    -1.838000000     2.577000000
C    -4.707000000    -3.270000000     5.586000000
H    -4.703000000    -4.268000000     6.018000000
C    -5.117000000    -2.180000000     6.331000000
H    -5.345000000    -2.284000000     7.389000000
C    -5.171000000    -0.957000000     5.701000000
H    -5.418000000    -0.067000000     6.275000000
C    -4.856000000    -0.837000000     4.384000000
O    -5.146000000     0.339000000     3.796000000
C    -4.247000000     1.383000000     3.483000000
C    -4.756000000     2.459000000     2.783000000
H    -5.822000000     2.549000000     2.588000000
C    -3.872000000     3.490000000     2.408000000
O    -4.458000000     4.589000000     1.803000000
C    -3.765000000     5.646000000     1.259000000
C    -3.404000000     5.611000000    -0.077000000
H    -3.557000000     4.682000000    -0.621000000
C    -3.394000000     6.767000000     2.050000000
H    -3.758000000     6.797000000     3.074000000
C    -2.777000000     7.883000000     1.485000000
H    -2.492000000     8.807000000     1.981000000
C    -2.349000000     7.825000000     0.120000000
H    -1.685000000     8.583000000    -0.287000000
C    -2.707000000     6.705000000    -0.659000000
O    -2.349000000     6.703000000    -2.019000000
C    -1.566000000     5.700000000    -2.481000000
C    -1.870000000     5.122000000    -3.708000000
H    -2.766000000     5.437000000    -4.237000000
C    -1.076000000     4.113000000    -4.215000000
O    -1.380000000     3.536000000    -5.415000000
C    -0.618000000     2.617000000    -6.043000000
C    -1.091000000     1.347000000    -6.193000000
H    -2.044000000     1.125000000    -5.720000000
C     0.568000000     3.029000000    -6.563000000
H     0.913000000     4.060000000    -6.554000000
C     1.335000000     2.168000000    -7.341000000
H     2.286000000     2.511000000    -7.738000000
C     0.883000000     0.822000000    -7.451000000
H     1.473000000     0.080000000    -7.983000000
C    -0.328000000     0.439000000    -6.909000000
O    -0.637000000    -0.876000000    -6.853000000
C    -0.242000000    -1.715000000    -5.792000000
C    -0.988000000    -2.843000000    -5.500000000
H    -1.860000000    -3.051000000    -6.114000000
C    -0.652000000    -3.659000000    -4.380000000
O    -1.575000000    -4.592000000    -3.980000000
C    -1.336000000    -5.738000000    -3.173000000
C    -0.593000000    -6.838000000    -3.587000000
H    -0.336000000    -6.803000000    -4.642000000
C    -0.368000000    -7.965000000    -2.681000000
H     0.131000000    -8.877000000    -2.997000000
C    -0.977000000    -7.879000000    -1.457000000
H    -0.838000000    -8.763000000    -0.839000000
C    -1.770000000    -6.861000000    -1.120000000
C    -1.911000000    -5.765000000    -1.901000000
H    -2.476000000    -4.881000000    -1.616000000
C    -3.024000000     0.948000000     0.154000000
H    -3.736000000     1.760000000     0.272000000
C    -1.637000000     1.080000000     0.123000000
H    -1.306000000     2.113000000     0.191000000
C    -0.706000000     0.021000000     0.072000000
H     0.347000000     0.236000000    -0.053000000
C    -1.259000000    -1.256000000     0.075000000
H    -0.697000000    -2.184000000     0.004000000
C    -2.639000000    -1.457000000    -0.004000000
H    -2.962000000    -2.491000000    -0.096000000
C    -3.493000000    -0.365000000     0.101000000
C    -4.993000000    -0.609000000     0.060000000
O    -5.387000000    -1.764000000     0.072000000
O    -5.781000000     0.289000000    -0.154000000
O    -5.136000000     2.432000000    -1.642000000
H    -5.478000000     1.703000000    -1.125000000
H    -4.683000000     2.014000000    -2.375000000
O    -8.256000000     0.030000000    -4.465000000
H    -9.190000000     0.201000000    -4.351000000
H    -8.077000000    -0.717000000    -3.894000000
O    -3.755000000     0.711000000    -3.202000000
H    -3.828000000    -0.160000000    -3.591000000
H    -3.125000000     0.603000000    -2.489000000
O    -9.885000000     1.669000000    -0.356000000
H   -10.482000000     2.083000000    -0.979000000
H    -9.505000000     0.936000000    -0.840000000
O    -8.386000000     3.235000000     3.536000000
H    -9.156000000     2.672000000     3.607000000
H    -7.780000000     2.743000000     2.982000000
O   -10.008000000    -4.008000000     1.557000000
H   -10.175000000    -3.544000000     0.737000000
H    -9.056000000    -3.992000000     1.653000000
O    -8.104000000    -0.612000000     3.104000000
H    -8.783000000    -0.652000000     2.431000000
H    -7.569000000     0.144000000     2.860000000
O    -4.374000000    -1.900000000    -3.465000000
H    -4.180000000    -2.006000000    -2.534000000
H    -4.565000000    -2.786000000    -3.772000000
O    -8.767000000    -4.226000000    -2.447000000
H    -8.201000000    -4.786000000    -1.916000000
H    -8.165000000    -3.634000000    -2.898000000
O    -5.784000000     4.929000000    -3.038000000
H    -5.741000000     4.362000000    -3.808000000
H    -5.396000000     4.408000000    -2.335000000
O    -4.989000000    -3.868000000    -1.267000000
H    -5.273000000    -3.218000000    -0.623000000
H    -5.802000000    -4.195000000    -1.651000000
O   -10.900000000    -0.564000000     1.012000000
H   -10.467000000     0.104000000     0.481000000
H   -10.727000000    -1.385000000     0.552000000
O    -8.614000000    -3.114000000     4.485000000
H    -8.959000000    -2.769000000     5.309000000
H    -8.122000000    -2.385000000     4.108000000
O    -8.047000000    -0.510000000    -0.882000000
H    -7.965000000    -1.333000000    -0.399000000
H    -7.257000000    -0.020000000    -0.653000000
O    -7.227000000    -4.014000000     0.795000000
H    -7.012000000    -4.627000000     1.499000000
H    -6.536000000    -3.353000000     0.833000000
O    -7.109000000    -2.135000000    -3.046000000
H    -6.349000000    -1.895000000    -3.576000000
H    -7.001000000    -1.640000000    -2.234000000
O    -7.821000000     2.833000000    -3.757000000
H    -7.173000000     2.735000000    -3.059000000
H    -7.934000000     1.949000000    -4.106000000
O    -4.657000000     2.995000000    -5.457000000
H    -3.818000000     3.453000000    -5.506000000
H    -4.498000000     2.269000000    -4.853000000
O    -7.546000000     1.786000000     1.192000000
H    -6.961000000     1.184000000     0.732000000
H    -8.344000000     1.795000000     0.664000000
