215
-1457.43134
C    -2.566000000     3.510000000     2.504000000
H    -1.865000000     4.292000000     2.221000000
C    -2.205000000     2.307000000     3.148000000
C    -3.195000000     1.307000000     3.254000000
H    -2.915000000     0.346000000     3.678000000
C    -0.746000000     2.082000000     3.547000000
O    -0.095000000     3.355000000     3.932000000
H    -0.349000000     1.686000000     2.600000000
O    -0.639000000     1.148000000     4.672000000
C     0.238000000     0.137000000     4.442000000
C    -0.320000000    -1.031000000     4.001000000
H    -1.403000000    -1.115000000     3.987000000
C     0.458000000    -2.098000000     3.940000000
O    -0.115000000    -3.321000000     3.651000000
C     1.815000000    -2.033000000     4.088000000
C     2.675000000    -3.213000000     3.680000000
H     3.645000000    -3.066000000     4.161000000
C     2.843000000    -3.288000000     2.165000000
C     3.915000000    -2.646000000     1.518000000
H     4.631000000    -2.020000000     2.044000000
H     2.253000000    -4.149000000     4.051000000
C     2.432000000    -0.802000000     4.364000000
H     3.505000000    -0.638000000     4.307000000
C     1.627000000     0.333000000     4.621000000
C     2.206000000     1.683000000     4.881000000
H     3.220000000     1.589000000     5.276000000
H     1.719000000     2.168000000     5.729000000
C     2.155000000     2.575000000     3.654000000
C     3.275000000     2.525000000     2.828000000
H     4.089000000     1.863000000     3.112000000
C     1.094000000     3.442000000     3.269000000
C     1.120000000     4.094000000     2.034000000
H     0.316000000     4.742000000     1.694000000
C     2.220000000     3.932000000     1.197000000
O     2.244000000     4.517000000    -0.049000000
C     1.953000000     3.695000000    -1.198000000
C     0.922000000     4.320000000    -2.151000000
C     0.653000000     3.678000000    -3.405000000
H     1.244000000     2.819000000    -3.715000000
C     0.077000000     5.346000000    -1.654000000
H     0.202000000     5.753000000    -0.654000000
O     3.145000000     3.254000000    -1.950000000
H     1.419000000     2.790000000    -0.873000000
C     3.324000000     3.154000000     1.604000000
C     4.527000000     2.921000000     0.727000000
H     5.350000000     2.544000000     1.337000000
H     4.786000000     3.916000000     0.360000000
C     4.239000000     1.857000000    -0.329000000
C     4.820000000     0.616000000    -0.086000000
H     5.409000000     0.495000000     0.820000000
C     3.588000000     1.998000000    -1.584000000
C     3.536000000     1.004000000    -2.530000000
H     3.157000000     1.115000000    -3.542000000
C     4.009000000    -0.210000000    -2.191000000
O     3.757000000    -1.264000000    -3.078000000
C     2.656000000    -2.080000000    -2.657000000
C     1.627000000    -2.348000000    -3.811000000
C     1.636000000    -1.450000000    -4.877000000
H     2.224000000    -0.540000000    -4.967000000
C     0.610000000    -3.282000000    -3.673000000
H     0.640000000    -3.884000000    -2.768000000
O     3.014000000    -3.290000000    -2.036000000
H     2.157000000    -1.488000000    -1.876000000
C     4.626000000    -0.443000000    -0.947000000
C     5.196000000    -1.820000000    -0.567000000
H     6.031000000    -1.670000000     0.120000000
H     5.554000000    -2.289000000    -1.486000000
C     4.087000000    -2.579000000     0.104000000
C     3.138000000    -3.297000000    -0.663000000
C     2.011000000    -3.919000000    -0.035000000
H     1.270000000    -4.456000000    -0.621000000
C     1.982000000    -3.950000000     1.319000000
O     0.804000000    -4.400000000     1.809000000
C    -0.334000000    -3.654000000     2.243000000
H    -0.345000000    -2.715000000     1.669000000
C    -1.634000000    -4.394000000     1.971000000
C    -2.824000000    -4.145000000     2.716000000
H    -2.776000000    -3.398000000     3.504000000
C    -1.716000000    -5.314000000     0.935000000
H    -0.865000000    -5.513000000     0.289000000
C    -2.972000000    -5.803000000     0.488000000
O    -3.110000000    -6.579000000    -0.654000000
C    -4.131000000    -5.393000000     1.118000000
H    -5.082000000    -5.572000000     0.622000000
C    -4.004000000    -4.641000000     2.231000000
O    -5.174000000    -4.229000000     2.877000000
C    -5.201000000    -3.064000000     3.548000000
C    -5.368000000    -1.834000000     2.874000000
H    -5.434000000    -1.761000000     1.792000000
C    -5.045000000    -3.089000000     4.912000000
H    -4.814000000    -4.074000000     5.310000000
C    -5.027000000    -1.931000000     5.654000000
H    -4.859000000    -1.918000000     6.727000000
C    -5.168000000    -0.738000000     4.982000000
H    -5.197000000     0.231000000     5.475000000
C    -5.320000000    -0.727000000     3.651000000
O    -5.448000000     0.471000000     2.984000000
C    -4.479000000     1.476000000     2.780000000
C    -4.812000000     2.660000000     2.276000000
H    -5.860000000     2.823000000     2.040000000
C    -3.899000000     3.693000000     2.072000000
O    -4.381000000     4.869000000     1.613000000
C    -3.638000000     5.855000000     1.016000000
C    -3.304000000     5.877000000    -0.322000000
H    -3.675000000     5.101000000    -0.988000000
C    -3.195000000     6.924000000     1.841000000
H    -3.527000000     6.872000000     2.875000000
C    -2.337000000     7.907000000     1.370000000
H    -1.868000000     8.655000000     2.004000000
C    -2.040000000     7.888000000     0.000000000
H    -1.382000000     8.615000000    -0.470000000
C    -2.467000000     6.859000000    -0.831000000
O    -1.951000000     6.759000000    -2.118000000
C    -1.019000000     5.758000000    -2.498000000
C    -1.117000000     5.229000000    -3.794000000
H    -2.012000000     5.656000000    -4.241000000
C    -0.246000000     4.246000000    -4.320000000
O    -0.532000000     3.523000000    -5.518000000
C     0.378000000     2.601000000    -6.097000000
C    -0.051000000     1.294000000    -6.294000000
H    -1.073000000     1.029000000    -6.036000000
C     1.647000000     3.038000000    -6.545000000
H     2.002000000     4.035000000    -6.300000000
C     2.508000000     2.193000000    -7.249000000
H     3.468000000     2.594000000    -7.566000000
C     2.047000000     0.893000000    -7.535000000
H     2.645000000     0.162000000    -8.074000000
C     0.896000000     0.433000000    -6.927000000
O     0.571000000    -0.841000000    -7.002000000
C     0.625000000    -1.650000000    -5.870000000
C    -0.267000000    -2.666000000    -5.832000000
H    -0.979000000    -2.734000000    -6.651000000
C    -0.305000000    -3.565000000    -4.689000000
O    -1.316000000    -4.515000000    -4.454000000
C    -1.204000000    -5.509000000    -3.506000000
C    -0.171000000    -6.440000000    -3.578000000
H     0.574000000    -6.331000000    -4.362000000
C    -0.089000000    -7.449000000    -2.595000000
H     0.648000000    -8.248000000    -2.607000000
C    -1.098000000    -7.439000000    -1.632000000
H    -1.105000000    -8.174000000    -0.831000000
C    -2.159000000    -6.570000000    -1.642000000
C    -2.192000000    -5.583000000    -2.593000000
H    -3.010000000    -4.875000000    -2.698000000
C    -3.453000000    -0.714000000     0.094000000
H    -4.442000000    -0.374000000     0.391000000
C    -2.297000000    -0.005000000     0.423000000
H    -2.339000000     0.883000000     1.048000000
C    -1.094000000    -0.544000000     0.038000000
H    -0.273000000     0.043000000     0.391000000
C    -1.060000000    -1.672000000    -0.713000000
H    -0.103000000    -2.085000000    -1.020000000
C    -2.267000000    -2.342000000    -1.113000000
H    -2.162000000    -3.133000000    -1.851000000
C    -3.504000000    -1.851000000    -0.767000000
C    -4.831000000    -2.416000000    -1.229000000
O    -4.716000000    -3.311000000    -2.042000000
O    -5.963000000    -2.098000000    -0.901000000
O    -3.078000000     2.604000000    -1.773000000
H    -3.202000000     1.675000000    -1.577000000
H    -2.128000000     2.713000000    -1.823000000
O    -0.890000000     0.653000000    -3.168000000
H    -1.612000000     0.374000000    -3.731000000
H    -1.004000000     0.147000000    -2.363000000
O    -4.160000000    -5.994000000    -5.473000000
H    -3.358000000    -6.201000000    -4.992000000
H    -4.105000000    -6.522000000    -6.270000000
O    -9.962000000    -4.147000000     0.558000000
H    -9.009000000    -4.072000000     0.506000000
H   -10.112000000    -4.912000000     1.113000000
O   -10.551000000    -2.561000000    -1.344000000
H    -9.717000000    -2.310000000    -1.742000000
H   -10.304000000    -3.086000000    -0.583000000
O    -9.605000000    -1.033000000     1.786000000
H   -10.261000000    -1.222000000     1.115000000
H    -8.903000000    -0.584000000     1.314000000
O    -3.857000000    -3.029000000    -4.488000000
H    -4.018000000    -3.113000000    -3.548000000
H    -3.699000000    -3.925000000    -4.784000000
O    -8.494000000     1.116000000    -2.201000000
H    -8.357000000     0.172000000    -2.276000000
H    -8.842000000     1.376000000    -3.054000000
O    -5.948000000     1.343000000    -4.112000000
H    -5.054000000     1.059000000    -4.300000000
H    -6.501000000     0.655000000    -4.484000000
O    -6.946000000    -4.663000000    -2.670000000
H    -6.001000000    -4.568000000    -2.551000000
H    -7.327000000    -3.989000000    -2.108000000
O    -7.062000000    -3.780000000     0.693000000
H    -6.638000000    -3.141000000     0.120000000
H    -6.446000000    -3.898000000     1.416000000
O    -6.668000000    -4.748000000    -5.803000000
H    -5.961000000    -5.372000000    -5.637000000
H    -6.871000000    -4.382000000    -4.942000000
O    -8.524000000    -2.542000000    -5.161000000
H    -8.596000000    -3.293000000    -5.749000000
H    -9.320000000    -2.035000000    -5.322000000
O    -6.201000000    -1.296000000    -5.236000000
H    -5.364000000    -1.744000000    -5.110000000
H    -6.855000000    -1.994000000    -5.192000000
O    -8.069000000    -1.481000000    -2.622000000
H    -7.952000000    -1.794000000    -3.519000000
H    -7.277000000    -1.764000000    -2.165000000
O    -5.737000000     1.932000000    -1.263000000
H    -6.114000000     1.633000000    -2.091000000
H    -4.953000000     2.419000000    -1.519000000
O    -6.711000000    -7.520000000    -1.908000000
H    -6.883000000    -6.714000000    -2.395000000
H    -7.313000000    -7.484000000    -1.165000000
O    -3.042000000    -0.150000000    -5.089000000
H    -3.291000000    -0.093000000    -6.011000000
H    -3.209000000    -1.062000000    -4.852000000
O    -7.551000000     0.364000000     0.204000000
H    -6.881000000    -0.247000000    -0.102000000
H    -7.353000000     1.184000000    -0.248000000
