215
-1483.40573
C    -2.904000000     3.453000000     2.232000000
H    -2.119000000     3.977000000     1.694000000
C    -2.539000000     2.548000000     3.201000000
C    -3.520000000     1.724000000     3.684000000
H    -3.293000000     0.918000000     4.378000000
C    -1.068000000     2.190000000     3.413000000
O    -0.364000000     3.425000000     3.539000000
H    -0.737000000     1.756000000     2.458000000
O    -0.895000000     1.439000000     4.617000000
C     0.032000000     0.459000000     4.619000000
C    -0.505000000    -0.761000000     4.293000000
H    -1.571000000    -0.951000000     4.206000000
C     0.370000000    -1.873000000     4.108000000
O    -0.236000000    -3.038000000     3.646000000
C     1.760000000    -1.686000000     4.189000000
C     2.696000000    -2.865000000     3.867000000
H     3.660000000    -2.662000000     4.339000000
C     2.920000000    -3.106000000     2.380000000
C     4.030000000    -2.508000000     1.820000000
H     4.624000000    -1.844000000     2.443000000
H     2.278000000    -3.752000000     4.348000000
C     2.316000000    -0.473000000     4.632000000
H     3.385000000    -0.277000000     4.616000000
C     1.440000000     0.607000000     4.699000000
C     1.927000000     2.004000000     4.842000000
H     2.906000000     1.969000000     5.324000000
H     1.414000000     2.551000000     5.635000000
C     1.992000000     2.821000000     3.519000000
C     3.225000000     2.793000000     2.824000000
H     4.142000000     2.306000000     3.144000000
C     0.906000000     3.505000000     2.963000000
C     0.986000000     4.135000000     1.741000000
H     0.174000000     4.661000000     1.245000000
C     2.148000000     4.048000000     1.019000000
O     2.196000000     4.565000000    -0.237000000
C     1.846000000     3.662000000    -1.281000000
C     0.934000000     4.206000000    -2.351000000
C     1.145000000     3.729000000    -3.664000000
H     1.951000000     3.070000000    -3.976000000
C    -0.027000000     5.170000000    -2.016000000
H     0.016000000     5.638000000    -1.036000000
O     3.121000000     3.338000000    -1.911000000
H     1.410000000     2.756000000    -0.835000000
C     3.266000000     3.356000000     1.515000000
C     4.532000000     3.240000000     0.624000000
H     5.454000000     3.104000000     1.193000000
H     4.576000000     4.132000000    -0.005000000
C     4.326000000     2.007000000    -0.207000000
C     4.810000000     0.762000000     0.251000000
H     5.255000000     0.593000000     1.228000000
C     3.718000000     2.147000000    -1.477000000
C     3.697000000     1.049000000    -2.334000000
H     3.103000000     1.103000000    -3.242000000
C     4.126000000    -0.190000000    -1.919000000
O     3.847000000    -1.308000000    -2.723000000
C     2.782000000    -2.181000000    -2.321000000
C     1.858000000    -2.717000000    -3.446000000
C     1.310000000    -1.727000000    -4.292000000
H     1.440000000    -0.689000000    -3.995000000
C     1.306000000    -3.982000000    -3.531000000
H     1.518000000    -4.737000000    -2.779000000
O     3.391000000    -3.342000000    -1.724000000
H     2.124000000    -1.598000000    -1.659000000
C     4.762000000    -0.293000000    -0.655000000
C     5.258000000    -1.648000000    -0.251000000
H     6.111000000    -1.582000000     0.427000000
H     5.708000000    -2.206000000    -1.074000000
C     4.230000000    -2.559000000     0.430000000
C     3.319000000    -3.364000000    -0.350000000
C     2.208000000    -3.914000000     0.248000000
H     1.546000000    -4.455000000    -0.423000000
C     1.999000000    -3.799000000     1.634000000
O     0.815000000    -4.278000000     2.154000000
C    -0.269000000    -3.412000000     2.310000000
H    -0.146000000    -2.494000000     1.717000000
C    -1.540000000    -4.007000000     1.879000000
C    -2.686000000    -3.482000000     2.394000000
H    -2.588000000    -2.664000000     3.102000000
C    -1.563000000    -5.014000000     0.799000000
H    -0.657000000    -5.534000000     0.501000000
C    -2.825000000    -5.383000000     0.352000000
O    -2.949000000    -6.207000000    -0.756000000
C    -3.977000000    -4.822000000     0.870000000
H    -4.972000000    -5.020000000     0.480000000
C    -3.898000000    -3.905000000     1.856000000
O    -5.085000000    -3.398000000     2.291000000
C    -5.077000000    -2.504000000     3.316000000
C    -5.300000000    -1.177000000     3.034000000
H    -5.407000000    -0.717000000     2.055000000
C    -5.107000000    -2.963000000     4.656000000
H    -4.922000000    -4.012000000     4.877000000
C    -5.190000000    -2.048000000     5.694000000
H    -5.205000000    -2.399000000     6.722000000
C    -5.361000000    -0.664000000     5.406000000
H    -5.437000000     0.155000000     6.117000000
C    -5.399000000    -0.312000000     4.087000000
O    -5.844000000     0.942000000     3.700000000
C    -4.883000000     1.885000000     3.352000000
C    -5.193000000     2.848000000     2.383000000
H    -6.212000000     2.946000000     2.017000000
C    -4.244000000     3.704000000     1.856000000
O    -4.581000000     4.600000000     0.786000000
C    -3.771000000     5.603000000     0.285000000
C    -3.259000000     5.520000000    -1.008000000
H    -3.303000000     4.561000000    -1.519000000
C    -3.752000000     6.870000000     0.908000000
H    -4.202000000     6.890000000     1.898000000
C    -3.276000000     7.968000000     0.209000000
H    -3.343000000     8.982000000     0.594000000
C    -2.618000000     7.824000000    -1.032000000
H    -2.118000000     8.602000000    -1.604000000
C    -2.633000000     6.603000000    -1.630000000
O    -2.058000000     6.400000000    -2.812000000
C    -0.996000000     5.552000000    -3.018000000
C    -0.826000000     5.022000000    -4.327000000
H    -1.494000000     5.327000000    -5.129000000
C     0.201000000     4.131000000    -4.603000000
O     0.302000000     3.738000000    -5.953000000
C     0.786000000     2.543000000    -6.324000000
C     0.075000000     1.369000000    -6.069000000
H    -0.822000000     1.388000000    -5.455000000
C     2.106000000     2.480000000    -6.822000000
H     2.694000000     3.394000000    -6.847000000
C     2.682000000     1.240000000    -7.263000000
H     3.673000000     1.121000000    -7.694000000
C     1.906000000     0.106000000    -7.101000000
H     2.370000000    -0.857000000    -7.299000000
C     0.635000000     0.133000000    -6.506000000
O    -0.033000000    -1.064000000    -6.258000000
C     0.403000000    -2.025000000    -5.306000000
C     0.044000000    -3.329000000    -5.475000000
H    -0.789000000    -3.489000000    -6.155000000
C     0.347000000    -4.298000000    -4.530000000
O    -0.223000000    -5.572000000    -4.575000000
C    -0.524000000    -6.360000000    -3.527000000
C     0.285000000    -7.416000000    -3.137000000
H     1.131000000    -7.663000000    -3.773000000
C     0.001000000    -8.073000000    -1.973000000
H     0.510000000    -8.960000000    -1.604000000
C    -1.094000000    -7.695000000    -1.225000000
H    -1.272000000    -8.247000000    -0.305000000
C    -1.922000000    -6.612000000    -1.610000000
C    -1.632000000    -6.004000000    -2.823000000
H    -2.190000000    -5.125000000    -3.135000000
C    -2.882000000     0.056000000    -0.043000000
H    -3.766000000     0.662000000     0.139000000
C    -1.601000000     0.577000000     0.277000000
H    -1.485000000     1.617000000     0.571000000
C    -0.468000000    -0.267000000     0.025000000
H     0.493000000     0.031000000     0.250000000
C    -0.639000000    -1.544000000    -0.498000000
H     0.160000000    -2.261000000    -0.664000000
C    -1.865000000    -2.029000000    -0.840000000
H    -2.054000000    -3.003000000    -1.285000000
C    -3.013000000    -1.255000000    -0.597000000
C    -4.405000000    -1.839000000    -0.961000000
O    -4.369000000    -2.801000000    -1.653000000
O    -5.446000000    -1.167000000    -0.838000000
O    -3.577000000     2.874000000    -3.254000000
H    -3.680000000     1.924000000    -3.309000000
H    -2.639000000     3.020000000    -3.384000000
O    -7.085000000    -7.151000000    -3.694000000
H    -6.893000000    -7.005000000    -4.620000000
H    -6.576000000    -6.483000000    -3.235000000
O    -0.772000000     1.092000000    -2.635000000
H    -0.442000000     0.685000000    -1.834000000
H    -1.410000000     0.465000000    -2.976000000
O    -4.187000000    -5.387000000    -4.948000000
H    -4.126000000    -6.220000000    -4.481000000
H    -3.688000000    -5.526000000    -5.753000000
O    -7.574000000    -5.365000000    -0.430000000
H    -6.842000000    -5.167000000    -1.014000000
H    -7.663000000    -4.584000000     0.116000000
O    -8.728000000    -0.859000000     1.682000000
H    -8.775000000    -1.628000000     1.115000000
H    -8.279000000    -0.199000000     1.154000000
O    -3.570000000    -2.717000000    -4.139000000
H    -3.588000000    -2.869000000    -3.195000000
H    -4.026000000    -3.471000000    -4.512000000
O    -5.514000000    -5.069000000    -2.150000000
H    -4.712000000    -5.552000000    -1.955000000
H    -5.285000000    -4.152000000    -1.998000000
O   -10.005000000    -2.853000000    -1.139000000
H   -10.431000000    -3.200000000    -1.923000000
H    -9.136000000    -2.584000000    -1.438000000
O    -5.726000000    -2.884000000    -7.178000000
H    -5.914000000    -3.309000000    -8.015000000
H    -6.189000000    -3.414000000    -6.530000000
O    -3.220000000     0.105000000    -6.051000000
H    -4.008000000     0.042000000    -6.592000000
H    -2.792000000    -0.746000000    -6.152000000
O    -7.208000000    -2.622000000     0.345000000
H    -6.692000000    -2.091000000    -0.261000000
H    -6.643000000    -2.729000000     1.110000000
O    -6.722000000    -3.939000000    -4.846000000
H    -5.965000000    -4.525000000    -4.870000000
H    -6.822000000    -3.713000000    -3.922000000
O    -6.333000000     2.805000000    -2.626000000
H    -5.380000000     2.839000000    -2.708000000
H    -6.602000000     2.116000000    -3.234000000
O    -7.610000000    -1.674000000    -2.682000000
H    -7.863000000    -1.016000000    -3.329000000
H    -6.712000000    -1.443000000    -2.444000000
O    -7.466000000    -8.003000000     0.317000000
H    -7.606000000    -7.872000000     1.255000000
H    -7.332000000    -7.122000000    -0.031000000
O    -2.910000000    -2.300000000    -7.151000000
H    -2.680000000    -2.732000000    -6.328000000
H    -3.857000000    -2.416000000    -7.225000000
O    -3.293000000     0.078000000    -3.391000000
H    -3.306000000     0.082000000    -4.349000000
H    -3.636000000    -0.782000000    -3.150000000
O    -7.280000000     0.655000000    -0.182000000
H    -6.650000000    -0.044000000    -0.358000000
H    -6.916000000     1.422000000    -0.624000000
