215
-1466.62273
C    -3.282000000     3.476000000     2.705000000
H    -2.580000000     4.270000000     2.467000000
C    -2.785000000     2.295000000     3.306000000
C    -3.643000000     1.291000000     3.689000000
H    -3.207000000     0.356000000     4.033000000
C    -1.246000000     2.120000000     3.488000000
O    -0.662000000     3.470000000     3.629000000
H    -0.858000000     1.634000000     2.581000000
O    -1.067000000     1.277000000     4.650000000
C    -0.099000000     0.330000000     4.512000000
C    -0.477000000    -0.977000000     4.281000000
H    -1.526000000    -1.261000000     4.256000000
C     0.498000000    -1.909000000     4.106000000
O     0.100000000    -3.250000000     3.774000000
C     1.848000000    -1.519000000     4.134000000
C     2.842000000    -2.622000000     3.829000000
H     3.773000000    -2.239000000     4.254000000
C     3.238000000    -2.804000000     2.424000000
C     4.291000000    -2.044000000     1.897000000
H     4.829000000    -1.378000000     2.567000000
H     2.651000000    -3.512000000     4.433000000
C     2.241000000    -0.244000000     4.361000000
H     3.307000000    -0.032000000     4.376000000
C     1.275000000     0.768000000     4.449000000
C     1.709000000     2.217000000     4.640000000
H     2.694000000     2.291000000     5.106000000
H     0.982000000     2.702000000     5.295000000
C     1.637000000     3.004000000     3.321000000
C     2.748000000     3.145000000     2.580000000
H     3.644000000     2.599000000     2.863000000
C     0.482000000     3.715000000     2.981000000
C     0.520000000     4.493000000     1.805000000
H    -0.440000000     4.922000000     1.530000000
C     1.620000000     4.492000000     0.895000000
O     1.421000000     4.867000000    -0.444000000
C     1.363000000     3.712000000    -1.342000000
C     0.153000000     3.905000000    -2.295000000
C     0.386000000     3.727000000    -3.636000000
H     1.316000000     3.312000000    -4.016000000
C    -1.063000000     4.316000000    -1.830000000
H    -1.215000000     4.437000000    -0.760000000
O     2.627000000     3.470000000    -2.032000000
H     1.060000000     2.898000000    -0.666000000
C     2.789000000     3.885000000     1.415000000
C     4.010000000     3.737000000     0.526000000
H     4.893000000     3.858000000     1.157000000
H     4.078000000     4.657000000    -0.058000000
C     4.067000000     2.500000000    -0.335000000
C     4.685000000     1.378000000     0.133000000
H     5.146000000     1.300000000     1.114000000
C     3.442000000     2.503000000    -1.568000000
C     3.545000000     1.365000000    -2.402000000
H     3.005000000     1.240000000    -3.337000000
C     4.311000000     0.230000000    -1.967000000
O     4.271000000    -0.845000000    -2.750000000
C     3.239000000    -1.827000000    -2.367000000
C     2.366000000    -2.303000000    -3.583000000
C     2.020000000    -1.373000000    -4.563000000
H     2.487000000    -0.392000000    -4.599000000
C     1.750000000    -3.567000000    -3.515000000
H     1.958000000    -4.197000000    -2.654000000
O     3.887000000    -2.885000000    -1.632000000
H     2.477000000    -1.426000000    -1.683000000
C     4.817000000     0.229000000    -0.629000000
C     5.514000000    -1.011000000    -0.089000000
H     6.180000000    -0.707000000     0.721000000
H     6.152000000    -1.443000000    -0.863000000
C     4.574000000    -2.019000000     0.528000000
C     3.748000000    -2.825000000    -0.261000000
C     2.778000000    -3.695000000     0.213000000
H     2.200000000    -4.338000000    -0.446000000
C     2.533000000    -3.717000000     1.616000000
O     1.426000000    -4.360000000     2.117000000
C     0.262000000    -3.565000000     2.391000000
H     0.289000000    -2.634000000     1.805000000
C    -0.967000000    -4.331000000     1.902000000
C    -2.274000000    -3.885000000     2.263000000
H    -2.391000000    -3.140000000     3.046000000
C    -0.900000000    -5.327000000     0.901000000
H     0.024000000    -5.771000000     0.540000000
C    -2.055000000    -5.769000000     0.170000000
O    -2.032000000    -6.756000000    -0.730000000
C    -3.270000000    -5.211000000     0.531000000
H    -4.199000000    -5.421000000     0.008000000
C    -3.427000000    -4.312000000     1.576000000
O    -4.661000000    -3.818000000     1.818000000
C    -5.068000000    -3.099000000     2.889000000
C    -5.277000000    -1.718000000     2.778000000
H    -5.077000000    -1.248000000     1.819000000
C    -5.004000000    -3.657000000     4.181000000
H    -4.693000000    -4.692000000     4.297000000
C    -5.423000000    -2.910000000     5.291000000
H    -5.516000000    -3.321000000     6.293000000
C    -5.821000000    -1.620000000     5.082000000
H    -6.215000000    -1.050000000     5.919000000
C    -5.592000000    -0.932000000     3.881000000
O    -5.906000000     0.406000000     3.862000000
C    -5.037000000     1.385000000     3.541000000
C    -5.560000000     2.632000000     3.088000000
H    -6.619000000     2.824000000     2.936000000
C    -4.661000000     3.626000000     2.634000000
O    -5.229000000     4.713000000     2.032000000
C    -4.490000000     5.438000000     1.102000000
C    -4.302000000     4.982000000    -0.210000000
H    -4.870000000     4.153000000    -0.624000000
C    -3.909000000     6.645000000     1.510000000
H    -4.182000000     6.915000000     2.527000000
C    -3.200000000     7.426000000     0.592000000
H    -2.822000000     8.381000000     0.947000000
C    -2.826000000     6.916000000    -0.666000000
H    -2.262000000     7.513000000    -1.379000000
C    -3.502000000     5.762000000    -1.088000000
O    -3.306000000     5.191000000    -2.361000000
C    -2.161000000     4.577000000    -2.726000000
C    -1.924000000     4.275000000    -4.119000000
H    -2.755000000     4.298000000    -4.819000000
C    -0.663000000     3.923000000    -4.545000000
O    -0.545000000     3.637000000    -5.899000000
C     0.344000000     2.666000000    -6.313000000
C     0.114000000     1.302000000    -6.180000000
H    -0.876000000     0.971000000    -5.876000000
C     1.579000000     3.090000000    -6.901000000
H     1.809000000     4.151000000    -6.962000000
C     2.484000000     2.208000000    -7.471000000
H     3.413000000     2.469000000    -7.971000000
C     2.185000000     0.825000000    -7.288000000
H     2.936000000     0.111000000    -7.617000000
C     1.029000000     0.401000000    -6.712000000
O     0.759000000    -0.937000000    -6.562000000
C     1.162000000    -1.766000000    -5.551000000
C     0.583000000    -2.973000000    -5.501000000
H    -0.190000000    -3.170000000    -6.240000000
C     0.910000000    -3.928000000    -4.554000000
O     0.381000000    -5.203000000    -4.622000000
C     0.140000000    -6.041000000    -3.604000000
C     1.151000000    -7.025000000    -3.362000000
H     1.984000000    -7.101000000    -4.057000000
C     1.014000000    -8.010000000    -2.379000000
H     1.855000000    -8.681000000    -2.225000000
C    -0.088000000    -7.881000000    -1.522000000
H    -0.211000000    -8.551000000    -0.675000000
C    -1.064000000    -6.829000000    -1.682000000
C    -0.974000000    -5.931000000    -2.754000000
H    -1.829000000    -5.272000000    -2.883000000
C    -2.330000000     0.536000000    -0.197000000
H    -3.123000000     1.277000000    -0.126000000
C    -1.030000000     0.818000000     0.152000000
H    -0.825000000     1.773000000     0.629000000
C    -0.060000000    -0.165000000     0.134000000
H     0.952000000     0.058000000     0.499000000
C    -0.295000000    -1.411000000    -0.301000000
H     0.496000000    -2.157000000    -0.282000000
C    -1.616000000    -1.728000000    -0.788000000
H    -1.896000000    -2.697000000    -1.193000000
C    -2.711000000    -0.781000000    -0.665000000
C    -4.137000000    -1.108000000    -1.102000000
O    -4.410000000    -2.223000000    -1.501000000
O    -5.007000000    -0.284000000    -0.957000000
O    -8.634000000    -2.334000000     2.418000000
H    -8.373000000    -3.129000000     2.884000000
H    -8.242000000    -2.426000000     1.550000000
O    -2.795000000     0.698000000    -3.665000000
H    -3.283000000    -0.038000000    -4.035000000
H    -2.263000000     0.309000000    -2.971000000
O    -3.266000000    -2.115000000    -4.007000000
H    -4.045000000    -2.377000000    -4.497000000
H    -3.461000000    -2.355000000    -3.101000000
O    -7.122000000     3.358000000    -3.697000000
H    -7.462000000     2.504000000    -3.964000000
H    -6.635000000     3.181000000    -2.892000000
O    -8.913000000    -0.810000000    -3.105000000
H    -8.326000000    -0.427000000    -3.757000000
H    -8.870000000    -1.753000000    -3.268000000
O    -8.003000000    -3.458000000    -4.159000000
H    -7.274000000    -2.922000000    -3.848000000
H    -7.946000000    -3.410000000    -5.113000000
O    -9.654000000     2.017000000    -3.185000000
H    -9.404000000     2.378000000    -2.334000000
H    -9.427000000     1.088000000    -3.127000000
O    -6.233000000    -1.686000000    -3.435000000
H    -6.195000000    -0.746000000    -3.259000000
H    -5.700000000    -2.080000000    -2.745000000
O    -6.405000000     1.822000000    -1.365000000
H    -7.054000000     1.410000000    -0.794000000
H    -5.693000000     1.184000000    -1.418000000
O    -4.068000000     1.149000000    -6.159000000
H    -3.570000000     1.448000000    -5.397000000
H    -3.671000000     0.309000000    -6.390000000
O    -7.442000000    -3.519000000     0.279000000
H    -7.339000000    -2.640000000    -0.086000000
H    -6.558000000    -3.773000000     0.546000000
O    -9.055000000     0.486000000     3.198000000
H    -8.238000000     0.490000000     3.696000000
H    -8.989000000    -0.286000000     2.636000000
O    -6.770000000     0.802000000    -4.699000000
H    -5.901000000     1.000000000    -5.047000000
H    -7.263000000     0.481000000    -5.454000000
O    -5.435000000    -4.962000000    -2.175000000
H    -4.931000000    -4.218000000    -1.847000000
H    -6.314000000    -4.831000000    -1.821000000
O    -3.739000000    -3.377000000    -7.141000000
H    -3.696000000    -3.729000000    -8.030000000
H    -3.060000000    -2.703000000    -7.117000000
O    -6.418000000    -1.117000000    -6.929000000
H    -5.880000000    -1.786000000    -6.506000000
H    -5.924000000    -0.870000000    -7.711000000
O    -9.676000000    -4.139000000    -1.005000000
H    -8.854000000    -3.810000000    -0.641000000
H   -10.357000000    -3.677000000    -0.515000000
O    -7.507000000    -0.905000000    -0.548000000
H    -6.617000000    -0.648000000    -0.786000000
H    -8.019000000    -0.760000000    -1.343000000
O    -5.540000000    -7.642000000    -2.885000000
H    -5.365000000    -6.791000000    -2.484000000
H    -5.878000000    -7.431000000    -3.756000000
