215
-1452.75209
C    -3.506000000     2.783000000     1.909000000
H    -2.865000000     3.565000000     1.509000000
C    -3.155000000     2.016000000     3.059000000
C    -4.110000000     1.086000000     3.568000000
H    -3.898000000     0.422000000     4.402000000
C    -1.712000000     2.080000000     3.497000000
O    -1.172000000     3.326000000     3.545000000
H    -1.232000000     1.543000000     2.665000000
O    -1.420000000     1.418000000     4.720000000
C    -0.399000000     0.521000000     4.756000000
C    -0.672000000    -0.863000000     4.555000000
H    -1.694000000    -1.228000000     4.507000000
C     0.331000000    -1.828000000     4.446000000
O    -0.029000000    -3.087000000     3.998000000
C     1.722000000    -1.403000000     4.460000000
C     2.800000000    -2.326000000     4.229000000
H     3.714000000    -2.003000000     4.731000000
C     3.112000000    -2.369000000     2.751000000
C     4.086000000    -1.563000000     2.155000000
H     4.588000000    -0.790000000     2.732000000
H     2.618000000    -3.234000000     4.809000000
C     1.968000000    -0.045000000     4.726000000
H     3.000000000     0.288000000     4.784000000
C     0.928000000     0.890000000     4.801000000
C     1.203000000     2.321000000     5.040000000
H     2.148000000     2.363000000     5.585000000
H     0.467000000     2.831000000     5.664000000
C     1.240000000     3.203000000     3.785000000
C     2.539000000     3.259000000     3.108000000
H     3.433000000     2.756000000     3.467000000
C     0.086000000     3.624000000     3.143000000
C     0.186000000     4.218000000     1.904000000
H    -0.717000000     4.610000000     1.443000000
C     1.401000000     4.214000000     1.194000000
O     1.318000000     4.776000000    -0.145000000
C     1.428000000     3.891000000    -1.292000000
C     0.442000000     4.183000000    -2.433000000
C     0.439000000     3.421000000    -3.593000000
H     1.334000000     2.842000000    -3.807000000
C    -0.589000000     5.166000000    -2.237000000
H    -0.620000000     5.705000000    -1.293000000
O     2.763000000     3.803000000    -1.729000000
H     1.080000000     2.907000000    -0.947000000
C     2.623000000     3.890000000     1.826000000
C     3.942000000     3.951000000     1.023000000
H     4.797000000     4.025000000     1.697000000
H     4.045000000     4.932000000     0.555000000
C     4.060000000     2.728000000     0.091000000
C     4.801000000     1.630000000     0.480000000
H     5.275000000     1.473000000     1.446000000
C     3.490000000     2.725000000    -1.227000000
C     3.572000000     1.576000000    -2.062000000
H     3.166000000     1.535000000    -3.069000000
C     4.274000000     0.438000000    -1.574000000
O     4.195000000    -0.627000000    -2.414000000
C     3.213000000    -1.676000000    -2.131000000
C     2.532000000    -2.187000000    -3.357000000
C     2.339000000    -1.299000000    -4.429000000
H     2.955000000    -0.403000000    -4.454000000
C     1.721000000    -3.352000000    -3.219000000
H     1.761000000    -3.906000000    -2.285000000
O     3.839000000    -2.725000000    -1.328000000
H     2.474000000    -1.137000000    -1.521000000
C     4.831000000     0.488000000    -0.321000000
C     5.410000000    -0.779000000     0.165000000
H     6.300000000    -0.658000000     0.786000000
H     5.818000000    -1.332000000    -0.683000000
C     4.376000000    -1.690000000     0.786000000
C     3.668000000    -2.653000000     0.054000000
C     2.639000000    -3.422000000     0.596000000
H     2.077000000    -4.091000000    -0.051000000
C     2.427000000    -3.336000000     1.963000000
O     1.458000000    -4.032000000     2.504000000
C     0.222000000    -3.353000000     2.590000000
H     0.262000000    -2.393000000     2.055000000
C    -0.888000000    -4.079000000     1.905000000
C    -2.257000000    -3.651000000     2.047000000
H    -2.474000000    -2.764000000     2.637000000
C    -0.589000000    -5.168000000     1.086000000
H     0.438000000    -5.493000000     0.938000000
C    -1.654000000    -5.923000000     0.452000000
O    -1.385000000    -7.039000000    -0.199000000
C    -2.979000000    -5.504000000     0.646000000
H    -3.820000000    -6.042000000     0.215000000
C    -3.245000000    -4.422000000     1.418000000
O    -4.610000000    -4.107000000     1.611000000
C    -5.103000000    -3.294000000     2.574000000
C    -5.275000000    -1.946000000     2.473000000
H    -4.851000000    -1.344000000     1.674000000
C    -5.703000000    -4.029000000     3.592000000
H    -5.475000000    -5.084000000     3.717000000
C    -6.406000000    -3.396000000     4.583000000
H    -6.976000000    -3.859000000     5.383000000
C    -6.595000000    -2.030000000     4.457000000
H    -7.289000000    -1.580000000     5.162000000
C    -6.053000000    -1.284000000     3.415000000
O    -6.261000000     0.069000000     3.414000000
C    -5.350000000     0.904000000     2.898000000
C    -5.576000000     1.530000000     1.718000000
H    -6.460000000     1.266000000     1.144000000
C    -4.722000000     2.597000000     1.342000000
O    -5.024000000     3.231000000     0.146000000
C    -4.588000000     4.533000000    -0.198000000
C    -3.937000000     4.740000000    -1.399000000
H    -3.880000000     3.868000000    -2.045000000
C    -4.763000000     5.600000000     0.672000000
H    -5.436000000     5.449000000     1.512000000
C    -4.208000000     6.849000000     0.342000000
H    -4.373000000     7.708000000     0.987000000
C    -3.621000000     7.072000000    -0.882000000
H    -3.214000000     8.046000000    -1.144000000
C    -3.399000000     5.978000000    -1.782000000
O    -2.667000000     6.154000000    -2.890000000
C    -1.597000000     5.315000000    -3.203000000
C    -1.474000000     4.715000000    -4.484000000
H    -2.202000000     4.843000000    -5.282000000
C    -0.423000000     3.756000000    -4.701000000
O    -0.257000000     3.224000000    -5.957000000
C     0.865000000     2.500000000    -6.346000000
C     0.750000000     1.131000000    -6.366000000
H    -0.029000000     0.612000000    -5.812000000
C     1.957000000     3.109000000    -6.976000000
H     2.033000000     4.194000000    -6.983000000
C     2.999000000     2.336000000    -7.423000000
H     3.899000000     2.780000000    -7.841000000
C     2.887000000     0.907000000    -7.353000000
H     3.737000000     0.360000000    -7.753000000
C     1.798000000     0.286000000    -6.780000000
O     1.663000000    -1.086000000    -6.696000000
C     1.573000000    -1.737000000    -5.512000000
C     0.844000000    -2.953000000    -5.378000000
H     0.240000000    -3.338000000    -6.196000000
C     0.989000000    -3.813000000    -4.269000000
O     0.410000000    -5.113000000    -4.302000000
C     0.507000000    -6.043000000    -3.261000000
C     1.739000000    -6.662000000    -3.010000000
H     2.612000000    -6.382000000    -3.593000000
C     1.890000000    -7.473000000    -1.903000000
H     2.839000000    -7.973000000    -1.726000000
C     0.851000000    -7.686000000    -1.028000000
H     0.824000000    -8.268000000    -0.110000000
C    -0.368000000    -6.959000000    -1.221000000
C    -0.552000000    -6.189000000    -2.365000000
H    -1.463000000    -5.606000000    -2.467000000
C    -2.877000000     0.495000000    -0.755000000
H    -3.698000000     1.206000000    -0.804000000
C    -1.673000000     0.934000000    -0.142000000
H    -1.661000000     1.949000000     0.247000000
C    -0.584000000     0.053000000     0.004000000
H     0.237000000     0.503000000     0.541000000
C    -0.640000000    -1.184000000    -0.552000000
H     0.206000000    -1.866000000    -0.584000000
C    -1.821000000    -1.669000000    -1.109000000
H    -1.787000000    -2.670000000    -1.532000000
C    -3.016000000    -0.849000000    -1.150000000
C    -4.315000000    -1.440000000    -1.567000000
O    -4.457000000    -2.566000000    -1.967000000
O    -5.222000000    -0.596000000    -1.689000000
O    -7.306000000     3.099000000    -2.272000000
H    -8.075000000     3.576000000    -2.583000000
H    -7.609000000     2.642000000    -1.487000000
O    -5.451000000    -2.044000000    -4.667000000
H    -5.162000000    -2.187000000    -3.766000000
H    -6.113000000    -1.355000000    -4.600000000
O    -2.730000000    -0.983000000    -5.275000000
H    -2.445000000    -0.628000000    -4.433000000
H    -3.651000000    -1.208000000    -5.140000000
O    -7.564000000    -6.101000000    -1.276000000
H    -6.790000000    -6.661000000    -1.338000000
H    -7.395000000    -5.390000000    -1.894000000
O    -9.284000000     0.544000000    -3.419000000
H    -8.975000000     0.091000000    -2.635000000
H    -8.499000000     0.954000000    -3.783000000
O    -7.150000000     1.445000000    -4.874000000
H    -7.037000000     2.343000000    -5.186000000
H    -6.454000000     1.326000000    -4.228000000
O    -7.665000000     0.284000000    -1.124000000
H    -8.027000000    -0.158000000    -0.356000000
H    -6.799000000    -0.107000000    -1.239000000
O    -1.560000000     0.765000000    -3.567000000
H    -1.877000000     0.788000000    -2.664000000
H    -0.670000000     1.114000000    -3.518000000
O    -3.443000000    -0.199000000    -7.681000000
H    -3.217000000    -0.222000000    -6.751000000
H    -3.091000000     0.635000000    -7.993000000
O    -9.599000000    -3.477000000    -3.647000000
H    -9.604000000    -4.351000000    -4.038000000
H    -8.690000000    -3.339000000    -3.381000000
O   -10.139000000    -1.805000000    -1.146000000
H    -9.990000000    -2.392000000    -1.888000000
H    -9.591000000    -2.160000000    -0.446000000
O    -5.203000000    -2.523000000    -7.595000000
H    -4.496000000    -1.880000000    -7.549000000
H    -5.375000000    -2.756000000    -6.682000000
O    -5.081000000     1.606000000    -2.946000000
H    -5.799000000     2.123000000    -2.582000000
H    -5.188000000     0.738000000    -2.556000000
O    -3.352000000     1.924000000    -5.212000000
H    -3.687000000     1.681000000    -4.349000000
H    -2.537000000     1.429000000    -5.300000000
O    -2.204000000    -2.909000000    -7.188000000
H    -2.294000000    -2.219000000    -6.530000000
H    -2.765000000    -3.617000000    -6.872000000
O    -7.873000000    -3.034000000     0.432000000
H    -8.048000000    -2.924000000     1.366000000
H    -7.302000000    -3.800000000     0.384000000
O    -7.104000000    -3.377000000    -2.271000000
H    -6.238000000    -3.427000000    -1.867000000
H    -7.707000000    -3.276000000    -1.534000000
O    -4.213000000    -5.010000000    -2.717000000
H    -4.645000000    -4.772000000    -3.538000000
H    -4.195000000    -4.198000000    -2.212000000
O    -5.847000000    -4.656000000    -5.185000000
H    -5.750000000    -3.774000000    -4.824000000
H    -6.465000000    -4.551000000    -5.909000000
