215
-1457.59774
C    -3.641000000     2.679000000     2.036000000
H    -2.969000000     3.206000000     1.363000000
C    -3.080000000     2.091000000     3.192000000
C    -3.868000000     1.412000000     4.103000000
H    -3.435000000     0.862000000     4.935000000
C    -1.560000000     2.154000000     3.431000000
O    -1.005000000     3.502000000     3.374000000
H    -1.038000000     1.515000000     2.703000000
O    -1.227000000     1.583000000     4.715000000
C    -0.160000000     0.794000000     4.658000000
C    -0.398000000    -0.571000000     4.450000000
H    -1.441000000    -0.837000000     4.296000000
C     0.635000000    -1.514000000     4.351000000
O     0.317000000    -2.810000000     4.044000000
C     1.938000000    -1.002000000     4.316000000
C     3.142000000    -1.987000000     4.104000000
H     3.992000000    -1.640000000     4.695000000
C     3.498000000    -2.227000000     2.687000000
C     4.492000000    -1.458000000     2.074000000
H     4.989000000    -0.641000000     2.590000000
H     3.005000000    -2.984000000     4.527000000
C     2.191000000     0.383000000     4.380000000
H     3.176000000     0.788000000     4.166000000
C     1.177000000     1.332000000     4.593000000
C     1.512000000     2.815000000     4.624000000
H     2.516000000     3.028000000     4.997000000
H     0.815000000     3.319000000     5.297000000
C     1.393000000     3.388000000     3.216000000
C     2.563000000     3.608000000     2.455000000
H     3.519000000     3.347000000     2.901000000
C     0.163000000     3.761000000     2.678000000
C     0.063000000     4.203000000     1.348000000
H    -0.860000000     4.255000000     0.775000000
C     1.281000000     4.337000000     0.592000000
O     1.066000000     4.783000000    -0.694000000
C     1.256000000     3.731000000    -1.663000000
C     0.218000000     3.925000000    -2.779000000
C     0.466000000     3.693000000    -4.098000000
H     1.443000000     3.422000000    -4.490000000
C    -1.077000000     4.265000000    -2.401000000
H    -1.296000000     4.445000000    -1.352000000
O     2.511000000     3.733000000    -2.268000000
H     1.017000000     2.724000000    -1.289000000
C     2.495000000     4.075000000     1.158000000
C     3.788000000     4.076000000     0.364000000
H     4.633000000     4.265000000     1.030000000
H     3.834000000     4.858000000    -0.397000000
C     3.979000000     2.852000000    -0.450000000
C     4.729000000     1.786000000     0.084000000
H     5.287000000     1.905000000     1.010000000
C     3.395000000     2.757000000    -1.747000000
C     3.485000000     1.601000000    -2.494000000
H     3.061000000     1.495000000    -3.489000000
C     4.127000000     0.486000000    -1.946000000
O     3.942000000    -0.686000000    -2.640000000
C     3.171000000    -1.777000000    -2.136000000
C     2.499000000    -2.362000000    -3.372000000
C     1.841000000    -1.536000000    -4.299000000
H     2.053000000    -0.471000000    -4.329000000
C     2.254000000    -3.780000000    -3.443000000
H     2.639000000    -4.391000000    -2.631000000
O     4.003000000    -2.699000000    -1.382000000
H     2.349000000    -1.384000000    -1.519000000
C     4.806000000     0.576000000    -0.671000000
C     5.625000000    -0.593000000    -0.089000000
H     6.444000000    -0.360000000     0.594000000
H     6.140000000    -1.007000000    -0.958000000
C     4.706000000    -1.547000000     0.665000000
C     4.017000000    -2.540000000     0.018000000
C     3.179000000    -3.390000000     0.660000000
H     2.698000000    -4.133000000     0.030000000
C     2.818000000    -3.184000000     1.979000000
O     1.768000000    -3.904000000     2.448000000
C     0.537000000    -3.186000000     2.694000000
H     0.579000000    -2.298000000     2.045000000
C    -0.669000000    -3.903000000     2.114000000
C    -1.900000000    -3.358000000     2.508000000
H    -1.919000000    -2.611000000     3.297000000
C    -0.559000000    -4.817000000     1.102000000
H     0.419000000    -5.141000000     0.754000000
C    -1.717000000    -5.257000000     0.526000000
O    -1.657000000    -6.228000000    -0.448000000
C    -3.017000000    -4.750000000     0.833000000
H    -3.933000000    -5.080000000     0.351000000
C    -3.065000000    -3.809000000     1.841000000
O    -4.300000000    -3.262000000     2.189000000
C    -4.772000000    -2.759000000     3.365000000
C    -5.189000000    -1.430000000     3.407000000
H    -5.024000000    -0.891000000     2.478000000
C    -5.055000000    -3.561000000     4.486000000
H    -4.729000000    -4.597000000     4.455000000
C    -5.775000000    -3.076000000     5.562000000
H    -6.071000000    -3.743000000     6.367000000
C    -6.058000000    -1.702000000     5.589000000
H    -6.552000000    -1.212000000     6.425000000
C    -5.801000000    -0.847000000     4.473000000
O    -6.076000000     0.481000000     4.528000000
C    -5.266000000     1.271000000     3.816000000
C    -5.843000000     1.845000000     2.695000000
H    -6.919000000     1.778000000     2.556000000
C    -5.040000000     2.640000000     1.848000000
O    -5.563000000     3.139000000     0.690000000
C    -5.015000000     4.239000000     0.084000000
C    -4.588000000     4.139000000    -1.204000000
H    -4.932000000     3.258000000    -1.740000000
C    -4.660000000     5.334000000     0.845000000
H    -5.108000000     5.391000000     1.833000000
C    -3.861000000     6.385000000     0.297000000
H    -3.488000000     7.250000000     0.840000000
C    -3.350000000     6.166000000    -1.020000000
H    -2.618000000     6.818000000    -1.490000000
C    -3.794000000     5.093000000    -1.778000000
O    -3.380000000     4.779000000    -3.095000000
C    -2.068000000     4.417000000    -3.377000000
C    -1.828000000     4.074000000    -4.709000000
H    -2.636000000     4.016000000    -5.433000000
C    -0.487000000     3.809000000    -5.083000000
O    -0.220000000     3.493000000    -6.404000000
C     0.462000000     2.328000000    -6.748000000
C    -0.012000000     1.149000000    -6.246000000
H    -0.978000000     0.986000000    -5.776000000
C     1.655000000     2.446000000    -7.461000000
H     2.082000000     3.385000000    -7.806000000
C     2.415000000     1.308000000    -7.688000000
H     3.303000000     1.452000000    -8.298000000
C     1.998000000     0.084000000    -7.186000000
H     2.529000000    -0.820000000    -7.475000000
C     0.780000000     0.007000000    -6.471000000
O     0.358000000    -1.310000000    -6.185000000
C     0.951000000    -2.061000000    -5.213000000
C     0.686000000    -3.431000000    -5.281000000
H    -0.018000000    -3.868000000    -5.984000000
C     1.374000000    -4.283000000    -4.353000000
O     1.018000000    -5.581000000    -4.329000000
C     0.765000000    -6.333000000    -3.180000000
C     1.676000000    -7.203000000    -2.657000000
H     2.546000000    -7.557000000    -3.203000000
C     1.435000000    -7.809000000    -1.424000000
H     2.146000000    -8.552000000    -1.071000000
C     0.354000000    -7.403000000    -0.642000000
H     0.138000000    -7.875000000     0.313000000
C    -0.536000000    -6.546000000    -1.152000000
C    -0.342000000    -5.997000000    -2.410000000
H    -0.912000000    -5.209000000    -2.897000000
C    -2.416000000     0.475000000    -0.172000000
H    -3.205000000     1.222000000    -0.200000000
C    -1.132000000     0.876000000     0.106000000
H    -0.907000000     1.913000000     0.339000000
C    -0.111000000    -0.072000000     0.111000000
H     0.941000000     0.277000000     0.419000000
C    -0.370000000    -1.365000000    -0.249000000
H     0.454000000    -2.073000000    -0.268000000
C    -1.631000000    -1.728000000    -0.706000000
H    -1.834000000    -2.768000000    -0.951000000
C    -2.690000000    -0.787000000    -0.603000000
C    -3.987000000    -1.230000000    -1.120000000
O    -4.042000000    -2.158000000    -1.914000000
O    -4.937000000    -0.438000000    -1.163000000
O    -9.462000000    -3.542000000    -2.326000000
H    -9.478000000    -2.595000000    -2.182000000
H    -9.875000000    -3.910000000    -1.545000000
O    -6.868000000    -0.770000000    -3.842000000
H    -6.882000000     0.125000000    -4.181000000
H    -6.344000000    -0.715000000    -3.043000000
O    -4.148000000     1.117000000    -3.201000000
H    -3.197000000     1.087000000    -3.095000000
H    -4.485000000     0.552000000    -2.506000000
O    -6.812000000    -6.085000000    -0.191000000
H    -6.518000000    -5.181000000    -0.303000000
H    -7.110000000    -6.129000000     0.717000000
O    -3.193000000    -0.833000000    -6.448000000
H    -2.700000000    -1.068000000    -7.233000000
H    -2.824000000    -1.386000000    -5.759000000
O    -9.407000000     2.619000000    -0.672000000
H    -8.934000000     1.789000000    -0.620000000
H    -9.469000000     2.916000000     0.236000000
O    -4.144000000    -4.792000000    -2.755000000
H    -4.464000000    -4.583000000    -3.633000000
H    -4.015000000    -3.940000000    -2.338000000
O    -3.689000000    -7.288000000    -2.091000000
H    -3.200000000    -7.409000000    -2.905000000
H    -4.136000000    -6.449000000    -2.202000000
O    -7.521000000     0.286000000    -0.896000000
H    -7.680000000    -0.358000000    -0.205000000
H    -6.571000000     0.400000000    -0.903000000
O    -1.187000000     0.567000000    -2.954000000
H    -0.746000000     1.320000000    -3.349000000
H    -1.397000000     0.851000000    -2.065000000
O    -4.756000000     1.424000000    -5.918000000
H    -4.041000000     0.830000000    -6.146000000
H    -4.656000000     1.570000000    -4.978000000
O    -7.673000000    -2.542000000    -5.533000000
H    -6.953000000    -2.367000000    -6.138000000
H    -7.484000000    -1.994000000    -4.771000000
O    -5.850000000    -1.648000000    -7.408000000
H    -5.450000000    -1.086000000    -6.744000000
H    -6.302000000    -1.041000000    -7.994000000
O    -9.399000000    -0.212000000    -2.846000000
H    -9.007000000     0.157000000    -2.056000000
H    -8.653000000    -0.426000000    -3.407000000
O    -7.311000000     2.074000000    -4.186000000
H    -7.501000000     2.573000000    -3.391000000
H    -6.372000000     2.191000000    -4.324000000
O    -3.325000000    -5.125000000    -6.126000000
H    -3.098000000    -4.315000000    -6.583000000
H    -4.172000000    -4.941000000    -5.719000000
O    -8.095000000    -1.337000000     1.203000000
H    -8.134000000    -2.156000000     0.708000000
H    -8.484000000    -1.551000000     2.051000000
O    -6.643000000    -3.304000000    -0.251000000
H    -6.252000000    -3.026000000    -1.079000000
H    -5.983000000    -3.091000000     0.409000000
O    -2.156000000    -2.035000000    -3.897000000
H    -1.839000000    -1.180000000    -3.606000000
H    -2.887000000    -2.232000000    -3.312000000
