215
-1479.14752
C    -4.586000000     1.540000000     1.994000000
H    -4.327000000     2.481000000     1.517000000
C    -3.707000000     0.807000000     2.796000000
C    -4.066000000    -0.418000000     3.261000000
H    -3.381000000    -0.970000000     3.899000000
C    -2.329000000     1.367000000     3.101000000
O    -2.311000000     2.829000000     3.076000000
H    -1.668000000     1.055000000     2.279000000
O    -1.775000000     0.875000000     4.376000000
C    -0.438000000     0.513000000     4.455000000
C    -0.161000000    -0.877000000     4.375000000
H    -0.941000000    -1.632000000     4.316000000
C     1.157000000    -1.307000000     4.316000000
O     1.467000000    -2.675000000     4.116000000
C     2.230000000    -0.330000000     4.395000000
C     3.706000000    -0.754000000     4.275000000
H     4.373000000    -0.039000000     4.762000000
C     4.044000000    -0.788000000     2.834000000
C     4.440000000     0.357000000     2.075000000
H     4.492000000     1.302000000     2.609000000
H     3.801000000    -1.726000000     4.763000000
C     1.922000000     0.990000000     4.366000000
H     2.733000000     1.710000000     4.292000000
C     0.594000000     1.435000000     4.422000000
C     0.319000000     2.936000000     4.572000000
H     1.120000000     3.480000000     5.076000000
H    -0.558000000     3.023000000     5.217000000
C    -0.014000000     3.600000000     3.199000000
C     1.036000000     4.202000000     2.519000000
H     2.045000000     4.233000000     2.923000000
C    -1.244000000     3.525000000     2.519000000
C    -1.465000000     4.135000000     1.272000000
H    -2.500000000     4.157000000     0.942000000
C    -0.407000000     4.673000000     0.591000000
O    -0.515000000     5.127000000    -0.667000000
C    -0.205000000     4.114000000    -1.620000000
C    -1.270000000     3.783000000    -2.614000000
C    -0.911000000     3.526000000    -3.946000000
H     0.114000000     3.422000000    -4.293000000
C    -2.635000000     3.904000000    -2.259000000
H    -2.973000000     4.203000000    -1.270000000
O     1.013000000     4.559000000    -2.252000000
H     0.136000000     3.209000000    -1.095000000
C     0.825000000     4.741000000     1.205000000
C     1.999000000     5.321000000     0.387000000
H     2.578000000     5.776000000     1.192000000
H     1.690000000     6.168000000    -0.230000000
C     2.676000000     4.328000000    -0.450000000
C     3.687000000     3.583000000     0.107000000
H     4.096000000     3.844000000     1.080000000
C     2.181000000     4.028000000    -1.713000000
C     2.617000000     2.856000000    -2.371000000
H     2.162000000     2.502000000    -3.293000000
C     3.566000000     2.077000000    -1.789000000
O     3.899000000     0.985000000    -2.520000000
C     3.546000000    -0.351000000    -2.064000000
C     3.030000000    -1.234000000    -3.187000000
C     2.254000000    -0.720000000    -4.226000000
H     2.234000000     0.351000000    -4.411000000
C     3.023000000    -2.605000000    -3.055000000
H     3.567000000    -3.067000000    -2.235000000
O     4.636000000    -0.964000000    -1.316000000
H     2.690000000    -0.175000000    -1.397000000
C     4.086000000     2.432000000    -0.520000000
C     5.220000000     1.563000000     0.037000000
H     5.821000000     2.179000000     0.710000000
H     5.850000000     1.398000000    -0.840000000
C     4.745000000     0.350000000     0.692000000
C     4.591000000    -0.877000000     0.055000000
C     4.157000000    -1.998000000     0.768000000
H     3.891000000    -2.899000000     0.221000000
C     3.887000000    -1.943000000     2.129000000
O     3.221000000    -3.092000000     2.613000000
C     1.808000000    -3.069000000     2.776000000
H     1.441000000    -2.327000000     2.052000000
C     1.164000000    -4.358000000     2.368000000
C    -0.185000000    -4.467000000     2.675000000
H    -0.692000000    -3.733000000     3.296000000
C     1.682000000    -5.376000000     1.558000000
H     2.725000000    -5.358000000     1.252000000
C     0.947000000    -6.437000000     1.004000000
O     1.495000000    -7.370000000     0.106000000
C    -0.348000000    -6.540000000     1.426000000
H    -0.976000000    -7.392000000     1.181000000
C    -0.980000000    -5.489000000     2.170000000
O    -2.317000000    -5.536000000     2.228000000
C    -3.007000000    -4.784000000     3.158000000
C    -3.935000000    -3.866000000     2.799000000
H    -4.022000000    -3.618000000     1.744000000
C    -2.900000000    -5.293000000     4.466000000
H    -2.352000000    -6.190000000     4.744000000
C    -3.744000000    -4.714000000     5.431000000
H    -3.746000000    -5.107000000     6.445000000
C    -4.689000000    -3.733000000     5.111000000
H    -5.328000000    -3.270000000     5.859000000
C    -4.772000000    -3.287000000     3.762000000
O    -5.653000000    -2.272000000     3.456000000
C    -5.217000000    -1.052000000     2.869000000
C    -6.171000000    -0.318000000     2.182000000
H    -7.127000000    -0.804000000     2.005000000
C    -5.825000000     0.939000000     1.676000000
O    -6.698000000     1.650000000     0.861000000
C    -6.507000000     2.811000000     0.088000000
C    -5.913000000     2.693000000    -1.153000000
H    -5.660000000     1.748000000    -1.627000000
C    -6.695000000     4.069000000     0.660000000
H    -7.128000000     4.138000000     1.655000000
C    -6.183000000     5.194000000     0.088000000
H    -6.261000000     6.170000000     0.560000000
C    -5.719000000     5.093000000    -1.202000000
H    -5.348000000     5.987000000    -1.697000000
C    -5.598000000     3.868000000    -1.858000000
O    -4.954000000     3.763000000    -3.063000000
C    -3.615000000     3.698000000    -3.220000000
C    -3.264000000     3.308000000    -4.512000000
H    -4.068000000     3.238000000    -5.241000000
C    -1.899000000     3.256000000    -4.879000000
O    -1.538000000     3.172000000    -6.234000000
C    -0.450000000     2.390000000    -6.656000000
C    -0.324000000     1.106000000    -6.202000000
H    -1.145000000     0.765000000    -5.576000000
C     0.470000000     2.955000000    -7.549000000
H     0.537000000     3.992000000    -7.869000000
C     1.444000000     2.115000000    -8.118000000
H     2.087000000     2.488000000    -8.912000000
C     1.560000000     0.783000000    -7.610000000
H     2.378000000     0.179000000    -7.992000000
C     0.719000000     0.322000000    -6.629000000
O     0.877000000    -1.014000000    -6.287000000
C     1.526000000    -1.539000000    -5.156000000
C     1.523000000    -2.882000000    -4.957000000
H     0.961000000    -3.464000000    -5.683000000
C     2.321000000    -3.435000000    -3.952000000
O     2.295000000    -4.784000000    -3.816000000
C     2.675000000    -5.580000000    -2.801000000
C     4.035000000    -5.799000000    -2.657000000
H     4.759000000    -5.266000000    -3.268000000
C     4.596000000    -6.532000000    -1.580000000
H     5.665000000    -6.436000000    -1.410000000
C     3.635000000    -6.974000000    -0.687000000
H     4.023000000    -7.566000000     0.138000000
C     2.274000000    -6.808000000    -0.821000000
C     1.776000000    -6.145000000    -1.900000000
H     0.728000000    -5.983000000    -2.139000000
C    -2.960000000    -1.017000000    -0.272000000
H    -4.008000000    -0.730000000    -0.256000000
C    -1.916000000    -0.102000000    -0.012000000
H    -2.074000000     0.961000000     0.147000000
C    -0.591000000    -0.556000000     0.106000000
H     0.200000000     0.174000000     0.279000000
C    -0.340000000    -1.871000000    -0.133000000
H     0.695000000    -2.199000000    -0.082000000
C    -1.326000000    -2.777000000    -0.526000000
H    -1.123000000    -3.840000000    -0.632000000
C    -2.641000000    -2.354000000    -0.498000000
C    -3.817000000    -3.367000000    -0.739000000
O    -3.641000000    -4.494000000    -1.115000000
O    -4.898000000    -2.942000000    -0.423000000
O    -8.817000000    -2.878000000     1.923000000
H    -8.389000000    -3.581000000     2.410000000
H    -8.402000000    -2.897000000     1.060000000
O    -1.621000000    -5.049000000    -2.852000000
H    -2.027000000    -5.087000000    -3.718000000
H    -2.296000000    -4.674000000    -2.287000000
O    -7.518000000    -2.350000000    -4.810000000
H    -7.566000000    -2.915000000    -4.039000000
H    -6.902000000    -1.661000000    -4.564000000
O    -7.448000000    -3.475000000    -0.169000000
H    -7.576000000    -3.609000000    -1.109000000
H    -6.510000000    -3.312000000    -0.076000000
O    -6.599000000    -7.896000000    -2.055000000
H    -7.482000000    -7.700000000    -1.743000000
H    -6.167000000    -7.043000000    -2.102000000
O    -5.540000000    -4.231000000    -6.268000000
H    -6.080000000    -3.552000000    -5.863000000
H    -5.770000000    -4.198000000    -7.196000000
O    -3.712000000    -8.898000000     0.896000000
H    -3.106000000    -9.546000000     0.536000000
H    -3.724000000    -8.195000000     0.246000000
O    -5.882000000    -5.843000000     0.567000000
H    -5.087000000    -5.753000000     0.042000000
H    -6.340000000    -5.010000000     0.452000000
O    -6.223000000    -8.152000000     1.849000000
H    -5.338000000    -8.517000000     1.860000000
H    -6.131000000    -7.313000000     1.398000000
O    -3.555000000    -7.349000000    -4.069000000
H    -3.423000000    -6.900000000    -4.904000000
H    -2.874000000    -8.022000000    -4.049000000
O    -7.509000000    -5.272000000     3.099000000
H    -7.190000000    -5.387000000     3.994000000
H    -7.046000000    -5.940000000     2.593000000
O    -3.178000000    -0.247000000    -3.599000000
H    -3.172000000    -1.160000000    -3.314000000
H    -3.051000000     0.256000000    -2.794000000
O    -3.221000000    -1.407000000    -6.343000000
H    -3.065000000    -0.997000000    -5.492000000
H    -3.511000000    -0.688000000    -6.905000000
O    -7.788000000    -4.371000000    -2.767000000
H    -8.461000000    -5.002000000    -3.018000000
H    -6.964000000    -4.851000000    -2.854000000
O    -2.855000000    -4.976000000    -5.392000000
H    -3.737000000    -4.724000000    -5.664000000
H    -2.280000000    -4.352000000    -5.836000000
O    -3.264000000    -7.257000000    -1.263000000
H    -3.128000000    -7.095000000    -2.197000000
H    -2.917000000    -6.477000000    -0.831000000
O    -5.938000000    -1.091000000    -2.171000000
H    -5.460000000    -1.628000000    -1.539000000
H    -6.738000000    -0.835000000    -1.712000000
O    -6.174000000     0.610000000    -4.253000000
H    -6.108000000     0.111000000    -3.439000000
H    -5.394000000     1.165000000    -4.257000000
O    -5.391000000    -5.459000000    -2.860000000
H    -4.898000000    -5.990000000    -3.485000000
H    -4.724000000    -4.955000000    -2.394000000
