215
-1445.74955
C    -4.267000000     2.068000000     2.299000000
H    -4.027000000     3.107000000     2.085000000
C    -3.367000000     1.210000000     2.987000000
C    -3.739000000    -0.171000000     3.166000000
H    -3.088000000    -0.882000000     3.669000000
C    -1.959000000     1.721000000     3.267000000
O    -1.932000000     3.152000000     3.398000000
H    -1.362000000     1.352000000     2.420000000
O    -1.478000000     1.065000000     4.458000000
C    -0.176000000     0.544000000     4.481000000
C     0.020000000    -0.806000000     4.274000000
H    -0.819000000    -1.467000000     4.073000000
C     1.298000000    -1.322000000     4.134000000
O     1.361000000    -2.707000000     3.883000000
C     2.392000000    -0.485000000     4.135000000
C     3.838000000    -1.090000000     3.875000000
H     4.663000000    -0.523000000     4.310000000
C     4.174000000    -1.239000000     2.389000000
C     4.806000000    -0.198000000     1.703000000
H     5.206000000     0.651000000     2.252000000
H     3.856000000    -2.053000000     4.389000000
C     2.243000000     0.902000000     4.285000000
H     3.088000000     1.586000000     4.297000000
C     0.937000000     1.372000000     4.559000000
C     0.649000000     2.874000000     4.689000000
H     1.542000000     3.302000000     5.149000000
H    -0.123000000     3.111000000     5.423000000
C     0.465000000     3.543000000     3.347000000
C     1.573000000     4.055000000     2.590000000
H     2.598000000     3.890000000     2.912000000
C    -0.823000000     3.746000000     2.824000000
C    -1.011000000     4.235000000     1.558000000
H    -2.007000000     4.251000000     1.124000000
C     0.033000000     4.791000000     0.873000000
O    -0.150000000     5.229000000    -0.442000000
C     0.027000000     4.198000000    -1.430000000
C    -1.132000000     4.021000000    -2.421000000
C    -1.048000000     3.279000000    -3.623000000
H    -0.065000000     2.898000000    -3.886000000
C    -2.396000000     4.572000000    -2.074000000
H    -2.466000000     5.086000000    -1.119000000
O     1.305000000     4.233000000    -2.090000000
H    -0.041000000     3.193000000    -0.988000000
C     1.319000000     4.561000000     1.327000000
C     2.543000000     4.936000000     0.509000000
H     3.280000000     5.270000000     1.242000000
H     2.244000000     5.804000000    -0.082000000
C     2.945000000     3.762000000    -0.447000000
C     4.022000000     2.931000000    -0.008000000
H     4.434000000     3.141000000     0.976000000
C     2.347000000     3.453000000    -1.639000000
C     2.825000000     2.466000000    -2.498000000
H     2.285000000     2.283000000    -3.423000000
C     3.899000000     1.734000000    -2.165000000
O     4.121000000     0.578000000    -2.874000000
C     3.489000000    -0.619000000    -2.428000000
C     2.824000000    -1.461000000    -3.508000000
C     2.177000000    -0.852000000    -4.626000000
H     2.308000000     0.209000000    -4.819000000
C     2.716000000    -2.828000000    -3.325000000
H     3.140000000    -3.254000000    -2.419000000
O     4.503000000    -1.389000000    -1.743000000
H     2.691000000    -0.309000000    -1.737000000
C     4.501000000     1.933000000    -0.872000000
C     5.571000000     0.908000000    -0.436000000
H     6.147000000     1.547000000     0.236000000
H     6.246000000     0.557000000    -1.220000000
C     4.962000000    -0.312000000     0.310000000
C     4.510000000    -1.428000000    -0.382000000
C     3.859000000    -2.427000000     0.288000000
H     3.532000000    -3.267000000    -0.320000000
C     3.672000000    -2.344000000     1.705000000
O     2.957000000    -3.333000000     2.235000000
C     1.604000000    -3.050000000     2.464000000
H     1.385000000    -2.158000000     1.860000000
C     0.729000000    -4.265000000     2.123000000
C    -0.426000000    -4.521000000     2.761000000
H    -0.633000000    -3.730000000     3.476000000
C     1.162000000    -5.143000000     1.129000000
H     2.130000000    -5.033000000     0.648000000
C     0.350000000    -6.268000000     0.835000000
O     0.742000000    -7.282000000    -0.012000000
C    -0.803000000    -6.495000000     1.544000000
H    -1.366000000    -7.425000000     1.519000000
C    -1.238000000    -5.572000000     2.493000000
O    -2.364000000    -5.846000000     3.277000000
C    -3.291000000    -4.929000000     3.756000000
C    -3.728000000    -3.811000000     3.054000000
H    -3.263000000    -3.615000000     2.091000000
C    -3.723000000    -5.120000000     5.078000000
H    -3.420000000    -6.012000000     5.620000000
C    -4.588000000    -4.259000000     5.671000000
H    -4.721000000    -4.270000000     6.749000000
C    -5.067000000    -3.155000000     4.928000000
H    -5.710000000    -2.373000000     5.325000000
C    -4.692000000    -2.996000000     3.614000000
O    -5.344000000    -2.016000000     2.892000000
C    -4.994000000    -0.618000000     2.732000000
C    -5.838000000     0.344000000     2.147000000
H    -6.766000000    -0.001000000     1.699000000
C    -5.472000000     1.594000000     1.774000000
O    -6.385000000     2.445000000     1.207000000
C    -5.962000000     3.583000000     0.514000000
C    -5.605000000     3.596000000    -0.827000000
H    -5.372000000     2.679000000    -1.362000000
C    -6.282000000     4.780000000     1.137000000
H    -6.487000000     4.738000000     2.204000000
C    -6.140000000     6.000000000     0.422000000
H    -6.233000000     6.921000000     0.993000000
C    -5.671000000     5.998000000    -0.871000000
H    -5.523000000     6.951000000    -1.373000000
C    -5.350000000     4.784000000    -1.508000000
O    -4.729000000     4.806000000    -2.648000000
C    -3.486000000     4.215000000    -2.866000000
C    -3.382000000     3.591000000    -4.067000000
H    -4.260000000     3.429000000    -4.688000000
C    -2.148000000     3.115000000    -4.472000000
O    -2.060000000     2.398000000    -5.621000000
C    -0.925000000     1.991000000    -6.272000000
C    -0.484000000     0.684000000    -6.187000000
H    -0.912000000     0.019000000    -5.441000000
C    -0.238000000     2.797000000    -7.101000000
H    -0.589000000     3.815000000    -7.250000000
C     0.769000000     2.362000000    -7.926000000
H     1.334000000     3.041000000    -8.559000000
C     1.247000000     1.093000000    -7.771000000
H     2.102000000     0.684000000    -8.303000000
C     0.590000000     0.190000000    -6.965000000
O     1.044000000    -1.130000000    -6.776000000
C     1.364000000    -1.641000000    -5.508000000
C     1.358000000    -3.037000000    -5.335000000
H     0.911000000    -3.711000000    -6.061000000
C     1.958000000    -3.636000000    -4.184000000
O     1.872000000    -4.987000000    -4.079000000
C     2.267000000    -5.809000000    -3.008000000
C     3.583000000    -6.155000000    -2.766000000
H     4.307000000    -5.778000000    -3.484000000
C     3.954000000    -6.997000000    -1.684000000
H     4.902000000    -7.518000000    -1.574000000
C     2.951000000    -7.362000000    -0.778000000
H     3.125000000    -8.018000000     0.071000000
C     1.667000000    -7.021000000    -1.035000000
C     1.282000000    -6.359000000    -2.186000000
H     0.243000000    -6.052000000    -2.279000000
C    -2.075000000    -1.876000000     0.260000000
H    -3.134000000    -1.798000000     0.492000000
C    -1.188000000    -0.781000000     0.440000000
H    -1.469000000     0.201000000     0.812000000
C     0.173000000    -0.933000000     0.090000000
H     0.866000000    -0.157000000     0.248000000
C     0.506000000    -2.094000000    -0.555000000
H     1.502000000    -2.293000000    -0.944000000
C    -0.405000000    -3.142000000    -0.783000000
H    -0.069000000    -4.081000000    -1.215000000
C    -1.749000000    -3.039000000    -0.401000000
C    -2.708000000    -4.115000000    -0.676000000
O    -2.375000000    -5.091000000    -1.303000000
O    -3.820000000    -4.116000000    -0.232000000
O    -7.805000000    -2.749000000     1.430000000
H    -7.544000000    -3.660000000     1.564000000
H    -7.227000000    -2.434000000     0.734000000
O    -2.235000000    -4.243000000    -3.828000000
H    -3.027000000    -4.696000000    -4.118000000
H    -2.183000000    -4.429000000    -2.890000000
O    -6.841000000    -1.313000000    -4.523000000
H    -6.663000000    -2.026000000    -3.909000000
H    -5.998000000    -0.870000000    -4.626000000
O    -5.885000000    -2.359000000    -0.338000000
H    -6.236000000    -2.640000000    -1.183000000
H    -5.081000000    -2.869000000    -0.232000000
O    -7.526000000    -6.714000000    -0.974000000
H    -8.098000000    -6.090000000    -1.421000000
H    -6.641000000    -6.452000000    -1.229000000
O    -4.259000000    -8.225000000     3.221000000
H    -4.335000000    -7.346000000     2.851000000
H    -4.857000000    -8.224000000     3.968000000
O    -0.625000000    -6.599000000    -5.225000000
H    -0.608000000    -6.238000000    -6.111000000
H    -0.408000000    -5.857000000    -4.660000000
O    -4.705000000    -6.566000000     0.926000000
H    -4.207000000    -5.752000000     0.850000000
H    -5.085000000    -6.696000000     0.057000000
O    -4.098000000    -9.615000000    -2.865000000
H    -3.605000000    -9.183000000    -2.167000000
H    -4.847000000    -9.039000000    -3.021000000
O    -3.931000000    -6.347000000    -4.758000000
H    -4.429000000    -6.024000000    -5.508000000
H    -3.067000000    -6.553000000    -5.115000000
O    -7.272000000    -5.477000000     2.324000000
H    -7.229000000    -5.878000000     3.192000000
H    -6.583000000    -5.915000000     1.823000000
O    -2.417000000    -1.341000000    -2.910000000
H    -2.532000000    -1.173000000    -1.974000000
H    -1.589000000    -1.817000000    -2.969000000
O    -4.444000000    -9.724000000     0.268000000
H    -5.398000000    -9.658000000     0.313000000
H    -4.132000000    -9.167000000     0.981000000
O    -3.649000000    -4.382000000    -6.648000000
H    -3.677000000    -3.437000000    -6.793000000
H    -2.949000000    -4.505000000    -6.007000000
O    -1.816000000    -7.750000000    -1.631000000
H    -1.157000000    -7.997000000    -0.981000000
H    -2.116000000    -6.885000000    -1.351000000
O    -6.287000000    -3.395000000    -2.832000000
H    -5.797000000    -4.134000000    -2.473000000
H    -6.902000000    -3.793000000    -3.449000000
O    -5.722000000     0.476000000    -1.437000000
H    -6.648000000     0.683000000    -1.305000000
H    -5.590000000    -0.342000000    -0.957000000
O    -4.293000000     0.188000000    -3.862000000
H    -3.625000000    -0.467000000    -3.658000000
H    -4.552000000     0.538000000    -3.009000000
O    -5.037000000    -5.873000000    -2.312000000
H    -4.740000000    -6.145000000    -3.180000000
H    -4.231000000    -5.677000000    -1.833000000
