215
-1433.02118
C    -4.189000000     1.772000000     2.112000000
H    -3.821000000     2.692000000     1.665000000
C    -3.426000000     1.056000000     3.032000000
C    -3.798000000    -0.195000000     3.476000000
H    -3.192000000    -0.766000000     4.174000000
C    -2.043000000     1.626000000     3.363000000
O    -1.953000000     3.080000000     3.326000000
H    -1.478000000     1.194000000     2.524000000
O    -1.504000000     1.106000000     4.568000000
C    -0.218000000     0.675000000     4.596000000
C    -0.003000000    -0.695000000     4.413000000
H    -0.889000000    -1.325000000     4.400000000
C     1.243000000    -1.226000000     4.305000000
O     1.371000000    -2.547000000     4.165000000
C     2.395000000    -0.406000000     4.279000000
C     3.796000000    -0.977000000     3.991000000
H     4.636000000    -0.359000000     4.314000000
C     3.929000000    -1.060000000     2.460000000
C     4.466000000    -0.017000000     1.767000000
H     4.581000000     0.915000000     2.313000000
H     3.920000000    -1.947000000     4.476000000
C     2.184000000     1.021000000     4.341000000
H     3.063000000     1.660000000     4.289000000
C     0.873000000     1.540000000     4.513000000
C     0.773000000     3.092000000     4.551000000
H     1.729000000     3.564000000     4.784000000
H    -0.036000000     3.304000000     5.254000000
C     0.364000000     3.707000000     3.215000000
C     1.450000000     4.175000000     2.488000000
H     2.471000000     4.043000000     2.837000000
C    -0.910000000     3.725000000     2.729000000
C    -1.161000000     4.306000000     1.455000000
H    -2.171000000     4.335000000     1.055000000
C    -0.057000000     4.675000000     0.632000000
O    -0.379000000     4.940000000    -0.646000000
C    -0.013000000     3.997000000    -1.630000000
C    -1.120000000     3.804000000    -2.707000000
C    -0.830000000     3.328000000    -3.959000000
H     0.201000000     3.048000000    -4.161000000
C    -2.422000000     4.097000000    -2.475000000
H    -2.577000000     4.499000000    -1.477000000
O     1.248000000     4.384000000    -2.184000000
H     0.288000000     3.071000000    -1.118000000
C     1.217000000     4.750000000     1.187000000
C     2.404000000     5.142000000     0.378000000
H     3.127000000     5.694000000     0.983000000
H     2.114000000     5.856000000    -0.396000000
C     2.860000000     4.009000000    -0.457000000
C     3.951000000     3.302000000    -0.109000000
H     4.473000000     3.538000000     0.815000000
C     2.382000000     3.759000000    -1.733000000
C     2.762000000     2.637000000    -2.488000000
H     2.389000000     2.473000000    -3.496000000
C     3.758000000     1.806000000    -2.026000000
O     4.024000000     0.678000000    -2.838000000
C     3.457000000    -0.524000000    -2.318000000
C     2.880000000    -1.395000000    -3.446000000
C     2.412000000    -0.916000000    -4.655000000
H     2.734000000     0.111000000    -4.807000000
C     2.575000000    -2.624000000    -3.086000000
H     2.640000000    -2.940000000    -2.048000000
O     4.503000000    -1.274000000    -1.588000000
H     2.624000000    -0.176000000    -1.690000000
C     4.294000000     2.103000000    -0.745000000
C     5.459000000     1.236000000    -0.249000000
H     6.100000000     1.603000000     0.556000000
H     6.098000000     1.001000000    -1.102000000
C     4.846000000    -0.103000000     0.451000000
C     4.543000000    -1.299000000    -0.204000000
C     3.942000000    -2.374000000     0.463000000
H     3.826000000    -3.310000000    -0.078000000
C     3.668000000    -2.263000000     1.785000000
O     2.869000000    -3.268000000     2.402000000
C     1.498000000    -2.985000000     2.782000000
H     1.186000000    -2.066000000     2.265000000
C     0.570000000    -4.171000000     2.522000000
C    -0.724000000    -4.372000000     3.075000000
H    -1.190000000    -3.620000000     3.707000000
C     1.022000000    -5.076000000     1.623000000
H     1.977000000    -4.968000000     1.116000000
C     0.318000000    -6.243000000     1.378000000
O     0.707000000    -7.107000000     0.372000000
C    -0.874000000    -6.469000000     2.006000000
H    -1.408000000    -7.374000000     1.729000000
C    -1.403000000    -5.554000000     2.829000000
O    -2.537000000    -5.870000000     3.488000000
C    -3.313000000    -4.917000000     4.068000000
C    -3.909000000    -3.926000000     3.367000000
H    -3.673000000    -3.902000000     2.306000000
C    -3.710000000    -5.216000000     5.374000000
H    -3.332000000    -6.111000000     5.862000000
C    -4.583000000    -4.315000000     6.049000000
H    -4.711000000    -4.347000000     7.128000000
C    -5.009000000    -3.163000000     5.399000000
H    -5.635000000    -2.405000000     5.863000000
C    -4.736000000    -2.985000000     4.020000000
O    -5.397000000    -2.016000000     3.284000000
C    -4.970000000    -0.782000000     2.935000000
C    -5.739000000    -0.074000000     2.003000000
H    -6.576000000    -0.526000000     1.478000000
C    -5.381000000     1.165000000     1.585000000
O    -6.174000000     1.804000000     0.668000000
C    -5.948000000     2.942000000     0.005000000
C    -5.328000000     3.081000000    -1.197000000
H    -4.905000000     2.130000000    -1.510000000
C    -6.556000000     4.096000000     0.532000000
H    -7.106000000     3.950000000     1.458000000
C    -6.396000000     5.360000000    -0.087000000
H    -6.890000000     6.258000000     0.276000000
C    -5.714000000     5.437000000    -1.314000000
H    -5.555000000     6.398000000    -1.796000000
C    -5.135000000     4.325000000    -1.886000000
O    -4.669000000     4.373000000    -3.147000000
C    -3.427000000     3.974000000    -3.421000000
C    -3.153000000     3.424000000    -4.657000000
H    -3.941000000     3.335000000    -5.401000000
C    -1.828000000     3.020000000    -4.904000000
O    -1.606000000     2.220000000    -6.029000000
C    -0.387000000     1.857000000    -6.577000000
C    -0.061000000     0.505000000    -6.545000000
H    -0.718000000    -0.230000000    -6.088000000
C     0.386000000     2.758000000    -7.242000000
H     0.025000000     3.782000000    -7.287000000
C     1.576000000     2.348000000    -7.860000000
H     2.076000000     3.073000000    -8.497000000
C     1.942000000     0.992000000    -7.816000000
H     2.805000000     0.647000000    -8.381000000
C     1.186000000     0.101000000    -7.051000000
O     1.619000000    -1.196000000    -6.883000000
C     1.834000000    -1.690000000    -5.637000000
C     1.618000000    -3.041000000    -5.292000000
H     1.132000000    -3.729000000    -5.980000000
C     1.933000000    -3.421000000    -4.033000000
O     1.316000000    -4.636000000    -3.696000000
C     1.794000000    -5.517000000    -2.756000000
C     3.165000000    -5.868000000    -2.786000000
H     3.809000000    -5.499000000    -3.580000000
C     3.684000000    -6.641000000    -1.724000000
H     4.748000000    -6.853000000    -1.785000000
C     2.868000000    -7.019000000    -0.697000000
H     3.248000000    -7.587000000     0.149000000
C     1.501000000    -6.693000000    -0.691000000
C     1.016000000    -5.870000000    -1.686000000
H     0.031000000    -5.409000000    -1.691000000
C    -2.919000000    -0.118000000    -0.540000000
H    -3.806000000     0.486000000    -0.707000000
C    -1.730000000     0.547000000    -0.158000000
H    -1.639000000     1.630000000    -0.171000000
C    -0.567000000    -0.255000000     0.259000000
H     0.393000000     0.311000000     0.543000000
C    -0.657000000    -1.633000000     0.210000000
H     0.210000000    -2.282000000     0.308000000
C    -1.852000000    -2.225000000    -0.147000000
H    -1.841000000    -3.296000000    -0.331000000
C    -3.007000000    -1.493000000    -0.435000000
C    -4.331000000    -2.142000000    -0.747000000
O    -4.495000000    -3.320000000    -0.788000000
O    -5.209000000    -1.456000000    -1.226000000
O    -9.891000000    -0.748000000    -1.829000000
H    -9.678000000    -0.063000000    -1.196000000
H    -9.184000000    -1.387000000    -1.738000000
O    -8.497000000    -0.260000000    -4.064000000
H    -9.242000000    -0.602000000    -3.570000000
H    -8.839000000    -0.118000000    -4.946000000
O    -4.107000000     0.487000000    -6.792000000
H    -4.954000000     0.042000000    -6.776000000
H    -3.780000000     0.412000000    -5.895000000
O    -9.134000000    -2.537000000     0.946000000
H    -8.652000000    -1.987000000     1.564000000
H    -8.633000000    -2.479000000     0.133000000
O    -6.005000000    -1.638000000    -6.591000000
H    -6.121000000    -1.825000000    -5.660000000
H    -5.654000000    -2.449000000    -6.957000000
O    -7.598000000    -2.267000000    -1.190000000
H    -7.502000000    -3.133000000    -1.587000000
H    -6.703000000    -2.000000000    -0.979000000
O    -8.222000000    -5.230000000     2.929000000
H    -7.606000000    -4.878000000     2.287000000
H    -7.667000000    -5.617000000     3.606000000
O    -5.714000000    -6.836000000     0.657000000
H    -6.522000000    -7.336000000     0.765000000
H    -5.924000000    -5.965000000     0.994000000
O    -6.544000000    -4.854000000    -1.600000000
H    -5.843000000    -4.257000000    -1.338000000
H    -6.560000000    -5.520000000    -0.913000000
O    -3.689000000    -5.873000000    -0.933000000
H    -3.590000000    -4.943000000    -0.731000000
H    -4.379000000    -6.174000000    -0.342000000
O    -9.050000000     1.248000000    -0.011000000
H    -9.423000000     1.171000000     0.867000000
H    -8.130000000     1.467000000     0.138000000
O    -4.758000000    -6.065000000    -6.246000000
H    -4.578000000    -5.687000000    -5.385000000
H    -5.298000000    -6.834000000    -6.062000000
O    -6.319000000    -4.114000000     1.322000000
H    -6.082000000    -3.683000000     2.143000000
H    -5.790000000    -3.672000000     0.658000000
O    -2.509000000    -3.163000000    -6.160000000
H    -2.987000000    -3.657000000    -5.493000000
H    -2.562000000    -2.253000000    -5.868000000
O    -7.058000000     2.434000000    -4.681000000
H    -7.947000000     2.512000000    -4.335000000
H    -6.591000000     1.914000000    -4.027000000
O    -5.702000000    -2.209000000    -3.942000000
H    -5.420000000    -2.111000000    -3.033000000
H    -6.514000000    -1.705000000    -3.996000000
O    -6.137000000     0.628000000    -2.832000000
H    -6.938000000     0.326000000    -3.260000000
H    -5.945000000    -0.046000000    -2.180000000
O    -3.513000000    -0.009000000    -4.168000000
H    -3.004000000     0.613000000    -3.647000000
H    -4.107000000    -0.418000000    -3.538000000
O    -4.399000000    -4.825000000    -3.921000000
H    -4.949000000    -4.055000000    -3.779000000
H    -4.041000000    -5.026000000    -3.056000000
