215
-1469.62250
C    -3.975000000     1.977000000     2.195000000
H    -3.751000000     2.993000000     1.883000000
C    -3.112000000     1.101000000     2.833000000
C    -3.579000000    -0.173000000     3.258000000
H    -2.898000000    -0.869000000     3.742000000
C    -1.747000000     1.627000000     3.225000000
O    -1.756000000     3.028000000     3.363000000
H    -1.000000000     1.270000000     2.501000000
O    -1.344000000     0.963000000     4.411000000
C    -0.050000000     0.450000000     4.635000000
C     0.135000000    -0.883000000     4.515000000
H    -0.729000000    -1.541000000     4.478000000
C     1.401000000    -1.410000000     4.291000000
O     1.427000000    -2.722000000     4.088000000
C     2.502000000    -0.561000000     4.186000000
C     3.878000000    -1.151000000     3.937000000
H     4.557000000    -0.385000000     4.316000000
C     4.095000000    -1.357000000     2.430000000
C     4.805000000    -0.332000000     1.694000000
H     5.090000000     0.560000000     2.245000000
H     4.046000000    -2.105000000     4.441000000
C     2.303000000     0.826000000     4.284000000
H     3.078000000     1.568000000     4.111000000
C     1.048000000     1.355000000     4.516000000
C     0.898000000     2.823000000     4.708000000
H     1.760000000     3.286000000     5.192000000
H     0.062000000     2.953000000     5.399000000
C     0.705000000     3.539000000     3.337000000
C     1.740000000     4.186000000     2.684000000
H     2.683000000     4.185000000     3.225000000
C    -0.655000000     3.670000000     2.835000000
C    -0.840000000     4.311000000     1.622000000
H    -1.825000000     4.334000000     1.163000000
C     0.236000000     4.760000000     0.844000000
O    -0.026000000     5.136000000    -0.488000000
C     0.259000000     4.135000000    -1.493000000
C    -0.786000000     3.920000000    -2.568000000
C    -0.468000000     3.817000000    -3.912000000
H     0.524000000     4.014000000    -4.312000000
C    -2.154000000     3.750000000    -2.200000000
H    -2.347000000     3.865000000    -1.136000000
O     1.511000000     4.597000000    -2.007000000
H     0.381000000     3.208000000    -0.915000000
C     1.547000000     4.672000000     1.357000000
C     2.793000000     4.982000000     0.567000000
H     3.667000000     5.282000000     1.149000000
H     2.732000000     5.828000000    -0.121000000
C     3.163000000     3.870000000    -0.425000000
C     4.112000000     2.912000000    -0.075000000
H     4.540000000     2.859000000     0.923000000
C     2.579000000     3.736000000    -1.736000000
C     2.840000000     2.668000000    -2.542000000
H     2.235000000     2.427000000    -3.413000000
C     3.793000000     1.723000000    -2.138000000
O     3.861000000     0.526000000    -2.867000000
C     3.167000000    -0.630000000    -2.355000000
C     2.341000000    -1.470000000    -3.431000000
C     1.934000000    -0.808000000    -4.650000000
H     2.289000000     0.203000000    -4.837000000
C     1.927000000    -2.755000000    -3.175000000
H     2.235000000    -3.286000000    -2.278000000
O     4.155000000    -1.537000000    -1.749000000
H     2.485000000    -0.337000000    -1.543000000
C     4.459000000     1.788000000    -0.919000000
C     5.486000000     0.779000000    -0.435000000
H     6.105000000     1.265000000     0.321000000
H     6.159000000     0.429000000    -1.220000000
C     4.831000000    -0.357000000     0.284000000
C     4.246000000    -1.496000000    -0.353000000
C     3.664000000    -2.556000000     0.333000000
H     3.215000000    -3.398000000    -0.186000000
C     3.606000000    -2.513000000     1.708000000
O     2.824000000    -3.452000000     2.275000000
C     1.489000000    -3.160000000     2.674000000
H     0.984000000    -2.390000000     2.072000000
C     0.651000000    -4.381000000     2.485000000
C    -0.547000000    -4.589000000     3.197000000
H    -0.725000000    -3.923000000     4.037000000
C     0.919000000    -5.267000000     1.455000000
H     1.823000000    -5.146000000     0.864000000
C     0.050000000    -6.368000000     1.198000000
O     0.407000000    -7.311000000     0.236000000
C    -1.074000000    -6.545000000     1.952000000
H    -1.733000000    -7.401000000     1.835000000
C    -1.386000000    -5.623000000     2.930000000
O    -2.556000000    -5.769000000     3.641000000
C    -3.259000000    -4.706000000     4.210000000
C    -3.965000000    -3.813000000     3.376000000
H    -3.937000000    -4.010000000     2.307000000
C    -3.221000000    -4.578000000     5.578000000
H    -2.683000000    -5.301000000     6.186000000
C    -3.929000000    -3.482000000     6.208000000
H    -3.807000000    -3.448000000     7.287000000
C    -4.681000000    -2.603000000     5.452000000
H    -5.216000000    -1.772000000     5.905000000
C    -4.676000000    -2.775000000     4.078000000
O    -5.305000000    -1.860000000     3.251000000
C    -4.900000000    -0.534000000     3.017000000
C    -5.757000000     0.275000000     2.346000000
H    -6.749000000    -0.030000000     2.022000000
C    -5.323000000     1.582000000     2.029000000
O    -6.283000000     2.451000000     1.420000000
C    -6.013000000     3.315000000     0.398000000
C    -5.416000000     2.938000000    -0.763000000
H    -5.221000000     1.881000000    -0.921000000
C    -6.347000000     4.689000000     0.500000000
H    -6.814000000     5.075000000     1.403000000
C    -5.817000000     5.631000000    -0.405000000
H    -5.879000000     6.699000000    -0.212000000
C    -5.124000000     5.238000000    -1.583000000
H    -4.749000000     6.044000000    -2.208000000
C    -4.981000000     3.817000000    -1.738000000
O    -4.395000000     3.290000000    -2.870000000
C    -3.107000000     3.601000000    -3.181000000
C    -2.728000000     3.501000000    -4.547000000
H    -3.461000000     3.357000000    -5.336000000
C    -1.406000000     3.666000000    -4.890000000
O    -1.062000000     3.612000000    -6.192000000
C    -0.147000000     2.703000000    -6.586000000
C    -0.204000000     1.390000000    -6.276000000
H    -1.051000000     1.086000000    -5.667000000
C     0.815000000     3.213000000    -7.474000000
H     0.953000000     4.270000000    -7.683000000
C     1.704000000     2.302000000    -8.058000000
H     2.479000000     2.791000000    -8.643000000
C     1.634000000     0.945000000    -7.768000000
H     2.317000000     0.241000000    -8.236000000
C     0.635000000     0.470000000    -6.846000000
O     0.475000000    -0.901000000    -6.606000000
C     1.043000000    -1.439000000    -5.492000000
C     0.556000000    -2.665000000    -5.148000000
H    -0.237000000    -3.152000000    -5.711000000
C     1.027000000    -3.385000000    -4.027000000
O     0.400000000    -4.577000000    -3.695000000
C     1.000000000    -5.484000000    -2.915000000
C     2.088000000    -6.170000000    -3.378000000
H     2.549000000    -5.893000000    -4.323000000
C     2.558000000    -7.264000000    -2.691000000
H     3.308000000    -7.949000000    -3.079000000
C     1.994000000    -7.628000000    -1.466000000
H     2.309000000    -8.459000000    -0.840000000
C     0.929000000    -6.928000000    -0.993000000
C     0.343000000    -5.930000000    -1.722000000
H    -0.590000000    -5.474000000    -1.400000000
C    -2.374000000     0.384000000    -0.460000000
H    -3.225000000     1.025000000    -0.677000000
C    -1.166000000     0.975000000    -0.322000000
H    -1.137000000     2.058000000    -0.407000000
C    -0.050000000     0.240000000    -0.013000000
H     0.853000000     0.756000000     0.189000000
C    -0.121000000    -1.075000000     0.140000000
H     0.738000000    -1.695000000     0.381000000
C    -1.320000000    -1.752000000    -0.017000000
H    -1.392000000    -2.830000000     0.111000000
C    -2.483000000    -0.997000000    -0.300000000
C    -3.783000000    -1.608000000    -0.428000000
O    -3.863000000    -2.830000000    -0.554000000
O    -4.759000000    -0.938000000    -0.536000000
O    -8.019000000    -2.001000000     3.448000000
H    -8.059000000    -1.080000000     3.191000000
H    -7.270000000    -2.352000000     2.965000000
O    -4.213000000    -3.989000000    -2.962000000
H    -4.938000000    -3.480000000    -3.325000000
H    -3.968000000    -3.522000000    -2.163000000
O    -7.416000000    -0.443000000    -0.459000000
H    -7.616000000    -1.379000000    -0.430000000
H    -6.462000000    -0.400000000    -0.398000000
O    -7.180000000    -6.038000000     2.285000000
H    -6.398000000    -5.992000000     2.834000000
H    -7.740000000    -6.682000000     2.719000000
O    -7.221000000    -3.324000000    -4.592000000
H    -6.520000000    -3.665000000    -5.148000000
H    -7.804000000    -2.866000000    -5.197000000
O    -6.673000000     1.653000000    -4.068000000
H    -6.356000000     0.818000000    -3.724000000
H    -5.891000000     2.202000000    -4.123000000
O    -6.069000000    -6.383000000    -0.269000000
H    -6.695000000    -6.312000000    -0.990000000
H    -6.610000000    -6.373000000     0.520000000
O    -2.483000000    -6.109000000    -3.629000000
H    -1.700000000    -5.794000000    -3.177000000
H    -3.147000000    -5.442000000    -3.449000000
O    -6.525000000    -2.988000000    -0.502000000
H    -5.578000000    -2.885000000    -0.588000000
H    -6.641000000    -3.463000000     0.322000000
O    -5.392000000    -3.816000000    -6.370000000
H    -5.294000000    -4.713000000    -6.688000000
H    -4.529000000    -3.589000000    -6.023000000
O    -1.223000000    -0.901000000    -3.123000000
H    -0.809000000    -1.759000000    -3.037000000
H    -0.788000000    -0.358000000    -2.466000000
O    -2.545000000    -2.024000000    -7.073000000
H    -2.850000000    -1.490000000    -6.339000000
H    -1.601000000    -1.871000000    -7.104000000
O    -9.435000000    -5.062000000     1.434000000
H    -8.583000000    -5.442000000     1.646000000
H   -10.061000000    -5.766000000     1.604000000
O    -5.757000000    -6.367000000    -4.499000000
H    -6.623000000    -6.323000000    -4.094000000
H    -5.271000000    -5.643000000    -4.104000000
O    -2.609000000    -8.328000000    -1.314000000
H    -2.685000000    -7.431000000    -0.988000000
H    -2.778000000    -8.256000000    -2.254000000
O    -5.696000000    -0.736000000    -3.053000000
H    -5.275000000    -0.947000000    -2.220000000
H    -6.496000000    -1.263000000    -3.057000000
O    -8.556000000     1.232000000    -2.067000000
H    -7.881000000     1.575000000    -2.652000000
H    -8.068000000     0.793000000    -1.370000000
O    -3.605000000    -0.684000000    -5.023000000
H    -4.421000000    -0.947000000    -4.597000000
H    -2.957000000    -0.681000000    -4.319000000
O    -3.406000000    -5.566000000    -0.126000000
H    -4.247000000    -6.017000000    -0.195000000
H    -3.610000000    -4.649000000    -0.310000000
