215
-1464.31849
C    -4.217000000     1.889000000     2.463000000
H    -3.821000000     2.810000000     2.043000000
C    -3.358000000     1.131000000     3.312000000
C    -3.876000000    -0.110000000     3.829000000
H    -3.221000000    -0.739000000     4.426000000
C    -1.867000000     1.645000000     3.539000000
O    -1.699000000     3.085000000     3.657000000
H    -1.211000000     1.306000000     2.724000000
O    -1.342000000     1.016000000     4.714000000
C    -0.015000000     0.595000000     4.611000000
C     0.187000000    -0.754000000     4.487000000
H    -0.713000000    -1.350000000     4.357000000
C     1.430000000    -1.342000000     4.329000000
O     1.493000000    -2.660000000     3.997000000
C     2.548000000    -0.487000000     4.185000000
C     3.893000000    -1.062000000     3.925000000
H     4.697000000    -0.409000000     4.270000000
C     4.167000000    -1.150000000     2.442000000
C     4.706000000    -0.078000000     1.742000000
H     5.011000000     0.784000000     2.330000000
H     4.093000000    -2.001000000     4.444000000
C     2.347000000     0.873000000     4.359000000
H     3.217000000     1.525000000     4.361000000
C     1.061000000     1.421000000     4.608000000
C     0.879000000     2.943000000     4.724000000
H     1.737000000     3.434000000     5.188000000
H     0.100000000     3.233000000     5.432000000
C     0.586000000     3.557000000     3.367000000
C     1.587000000     4.029000000     2.468000000
H     2.640000000     4.040000000     2.739000000
C    -0.708000000     3.621000000     2.908000000
C    -1.042000000     4.057000000     1.596000000
H    -2.092000000     4.157000000     1.332000000
C    -0.057000000     4.507000000     0.748000000
O    -0.411000000     4.805000000    -0.520000000
C    -0.092000000     3.892000000    -1.565000000
C    -1.265000000     3.753000000    -2.535000000
C    -1.068000000     3.122000000    -3.745000000
H    -0.086000000     2.698000000    -3.941000000
C    -2.499000000     4.299000000    -2.161000000
H    -2.689000000     4.773000000    -1.202000000
O     1.068000000     4.341000000    -2.196000000
H     0.066000000     2.894000000    -1.128000000
C     1.292000000     4.458000000     1.149000000
C     2.350000000     5.049000000     0.227000000
H     3.186000000     5.478000000     0.784000000
H     1.952000000     5.781000000    -0.479000000
C     2.862000000     3.857000000    -0.635000000
C     3.989000000     3.082000000    -0.301000000
H     4.481000000     3.287000000     0.647000000
C     2.235000000     3.659000000    -1.869000000
C     2.699000000     2.652000000    -2.684000000
H     2.215000000     2.399000000    -3.624000000
C     3.695000000     1.821000000    -2.286000000
O     3.840000000     0.623000000    -2.974000000
C     3.367000000    -0.605000000    -2.434000000
C     2.722000000    -1.467000000    -3.496000000
C     2.124000000    -0.918000000    -4.598000000
H     2.272000000     0.147000000    -4.757000000
C     2.479000000    -2.841000000    -3.281000000
H     2.897000000    -3.310000000    -2.394000000
O     4.439000000    -1.248000000    -1.779000000
H     2.600000000    -0.382000000    -1.677000000
C     4.323000000     1.982000000    -1.056000000
C     5.342000000     1.087000000    -0.420000000
H     5.947000000     1.711000000     0.241000000
H     6.036000000     0.693000000    -1.166000000
C     4.795000000    -0.093000000     0.334000000
C     4.468000000    -1.269000000    -0.368000000
C     3.971000000    -2.384000000     0.325000000
H     3.691000000    -3.339000000    -0.112000000
C     3.819000000    -2.315000000     1.720000000
O     3.122000000    -3.310000000     2.338000000
C     1.720000000    -2.962000000     2.609000000
H     1.513000000    -2.065000000     2.008000000
C     0.819000000    -4.138000000     2.251000000
C    -0.603000000    -4.051000000     2.363000000
H    -0.916000000    -3.138000000     2.863000000
C     1.300000000    -5.297000000     1.642000000
H     2.363000000    -5.489000000     1.521000000
C     0.450000000    -6.210000000     0.954000000
O     1.037000000    -7.192000000     0.124000000
C    -0.959000000    -6.115000000     1.011000000
H    -1.598000000    -6.782000000     0.438000000
C    -1.494000000    -5.041000000     1.742000000
O    -2.814000000    -4.836000000     1.715000000
C    -3.577000000    -4.381000000     2.776000000
C    -4.321000000    -3.170000000     2.735000000
H    -4.536000000    -2.704000000     1.776000000
C    -3.368000000    -5.011000000     4.020000000
H    -2.550000000    -5.725000000     4.070000000
C    -3.947000000    -4.580000000     5.154000000
H    -3.613000000    -4.968000000     6.113000000
C    -4.747000000    -3.502000000     5.143000000
H    -5.153000000    -2.960000000     5.994000000
C    -5.026000000    -2.865000000     3.890000000
O    -5.728000000    -1.687000000     3.955000000
C    -5.176000000    -0.466000000     3.520000000
C    -6.030000000     0.345000000     2.743000000
H    -7.071000000     0.095000000     2.559000000
C    -5.509000000     1.503000000     2.143000000
O    -6.347000000     2.194000000     1.269000000
C    -6.005000000     3.419000000     0.763000000
C    -5.676000000     3.425000000    -0.580000000
H    -5.855000000     2.517000000    -1.151000000
C    -6.006000000     4.642000000     1.496000000
H    -6.308000000     4.593000000     2.539000000
C    -5.735000000     5.785000000     0.807000000
H    -5.923000000     6.736000000     1.300000000
C    -5.292000000     5.789000000    -0.500000000
H    -5.207000000     6.733000000    -1.031000000
C    -5.213000000     4.563000000    -1.192000000
O    -4.899000000     4.501000000    -2.527000000
C    -3.620000000     4.117000000    -2.968000000
C    -3.429000000     3.507000000    -4.185000000
H    -4.286000000     3.454000000    -4.852000000
C    -2.159000000     3.038000000    -4.580000000
O    -2.141000000     2.421000000    -5.797000000
C    -1.006000000     1.900000000    -6.332000000
C    -0.623000000     0.548000000    -6.173000000
H    -1.299000000    -0.109000000    -5.633000000
C    -0.161000000     2.765000000    -6.823000000
H    -0.385000000     3.828000000    -6.824000000
C     1.054000000     2.324000000    -7.420000000
H     1.671000000     3.055000000    -7.935000000
C     1.424000000     0.979000000    -7.362000000
H     2.294000000     0.604000000    -7.894000000
C     0.580000000     0.092000000    -6.725000000
O     0.919000000    -1.160000000    -6.726000000
C     1.558000000    -1.703000000    -5.629000000
C     1.420000000    -3.062000000    -5.396000000
H     1.093000000    -3.743000000    -6.177000000
C     1.863000000    -3.635000000    -4.208000000
O     1.724000000    -4.989000000    -4.131000000
C     2.131000000    -5.771000000    -3.063000000
C     3.345000000    -6.459000000    -3.224000000
H     3.857000000    -6.447000000    -4.183000000
C     3.836000000    -7.287000000    -2.220000000
H     4.642000000    -7.962000000    -2.497000000
C     3.077000000    -7.612000000    -1.141000000
H     3.479000000    -8.262000000    -0.367000000
C     1.849000000    -6.891000000    -0.929000000
C     1.414000000    -5.982000000    -1.894000000
H     0.448000000    -5.499000000    -1.768000000
C    -2.664000000    -1.113000000    -0.488000000
H    -3.656000000    -0.677000000    -0.569000000
C    -1.653000000    -0.262000000    -0.013000000
H    -1.937000000     0.759000000     0.229000000
C    -0.356000000    -0.756000000     0.201000000
H     0.399000000    -0.078000000     0.626000000
C    -0.053000000    -2.006000000    -0.222000000
H     0.976000000    -2.355000000    -0.222000000
C    -1.054000000    -2.900000000    -0.601000000
H    -0.784000000    -3.876000000    -0.997000000
C    -2.377000000    -2.459000000    -0.840000000
C    -3.518000000    -3.241000000    -1.338000000
O    -3.251000000    -4.378000000    -1.681000000
O    -4.604000000    -2.733000000    -1.285000000
O    -9.576000000    -1.591000000    -0.577000000
H    -9.181000000    -0.785000000    -0.242000000
H    -8.844000000    -2.201000000    -0.658000000
O    -2.582000000    -2.819000000    -5.893000000
H    -3.040000000    -3.028000000    -5.078000000
H    -2.762000000    -1.890000000    -6.037000000
O    -5.430000000    -1.568000000    -6.023000000
H    -5.379000000    -2.377000000    -5.514000000
H    -4.973000000    -0.919000000    -5.488000000
O    -7.471000000    -3.221000000    -0.554000000
H    -7.536000000    -3.813000000     0.195000000
H    -6.536000000    -3.196000000    -0.759000000
O    -7.052000000    -7.384000000    -2.059000000
H    -7.243000000    -8.259000000    -2.395000000
H    -7.561000000    -6.796000000    -2.618000000
O    -3.544000000    -7.693000000     1.929000000
H    -3.850000000    -7.008000000     1.335000000
H    -4.346000000    -8.085000000     2.275000000
O    -8.737000000    -5.180000000    -2.731000000
H    -9.505000000    -5.690000000    -2.471000000
H    -8.674000000    -4.489000000    -2.073000000
O    -2.616000000    -8.855000000    -0.377000000
H    -3.044000000    -8.560000000     0.427000000
H    -3.173000000    -9.564000000    -0.698000000
O    -4.799000000    -6.416000000    -0.369000000
H    -4.594000000    -5.567000000    -0.761000000
H    -5.495000000    -6.773000000    -0.921000000
O    -0.876000000    -8.448000000    -4.261000000
H    -0.602000000    -7.831000000    -4.939000000
H    -1.263000000    -7.898000000    -3.579000000
O    -8.151000000     0.728000000     0.024000000
H    -8.832000000     0.941000000     0.662000000
H    -7.331000000     0.955000000     0.462000000
O    -6.610000000    -5.574000000     1.553000000
H    -6.322000000    -5.954000000     2.383000000
H    -6.057000000    -5.992000000     0.893000000
O    -1.205000000    -0.530000000    -3.038000000
H    -0.503000000    -1.100000000    -3.354000000
H    -1.366000000    -0.823000000    -2.141000000
O    -2.072000000    -6.884000000    -2.458000000
H    -2.310000000    -7.513000000    -1.777000000
H    -2.297000000    -6.031000000    -2.086000000
O    -5.258000000    -3.499000000    -4.221000000
H    -5.311000000    -3.286000000    -3.289000000
H    -4.872000000    -4.374000000    -4.245000000
O    -5.601000000    -0.169000000    -2.233000000
H    -6.547000000    -0.025000000    -2.206000000
H    -5.467000000    -0.975000000    -1.735000000
O    -3.834000000    -0.179000000    -4.352000000
H    -2.943000000    -0.220000000    -4.002000000
H    -4.392000000    -0.109000000    -3.577000000
O    -4.294000000    -5.972000000    -3.921000000
H    -4.384000000    -6.924000000    -3.874000000
H    -3.899000000    -5.727000000    -3.084000000
O    -7.906000000    -0.446000000    -5.434000000
H    -8.110000000    -0.187000000    -6.333000000
H    -7.029000000    -0.825000000    -5.488000000
