215
-1433.07514
C    -2.949000000    -2.271000000     3.280000000
H    -3.384000000    -2.857000000     2.474000000
C    -3.113000000    -0.849000000     3.216000000
C    -2.495000000    -0.052000000     4.211000000
H    -2.559000000     1.019000000     4.034000000
C    -3.717000000    -0.243000000     1.938000000
O    -4.752000000    -1.083000000     1.326000000
H    -2.830000000    -0.271000000     1.288000000
O    -4.377000000     1.087000000     2.146000000
C    -3.978000000     2.043000000     1.195000000
C    -3.029000000     2.979000000     1.625000000
H    -2.791000000     2.995000000     2.685000000
C    -2.499000000     3.897000000     0.746000000
O    -1.392000000     4.567000000     1.148000000
C    -3.025000000     3.921000000    -0.531000000
C    -2.487000000     4.795000000    -1.666000000
H    -3.339000000     4.954000000    -2.330000000
C    -1.204000000     4.271000000    -2.354000000
C    -1.269000000     3.429000000    -3.503000000
H    -2.263000000     3.381000000    -3.942000000
H    -2.311000000     5.765000000    -1.195000000
C    -3.981000000     3.040000000    -0.928000000
H    -4.361000000     3.095000000    -1.945000000
C    -4.474000000     2.023000000    -0.076000000
C    -5.483000000     1.058000000    -0.635000000
H    -5.840000000     1.452000000    -1.590000000
H    -6.316000000     0.873000000     0.047000000
C    -4.800000000    -0.306000000    -1.026000000
C    -4.476000000    -0.550000000    -2.320000000
H    -4.598000000     0.198000000    -3.099000000
C    -4.511000000    -1.304000000    -0.074000000
C    -3.919000000    -2.508000000    -0.493000000
H    -3.530000000    -3.219000000     0.231000000
C    -3.557000000    -2.683000000    -1.772000000
O    -2.877000000    -3.833000000    -2.024000000
C    -1.478000000    -3.716000000    -2.242000000
C    -0.683000000    -4.778000000    -1.596000000
C     0.680000000    -4.581000000    -1.448000000
H     1.176000000    -3.855000000    -2.088000000
C    -1.297000000    -5.785000000    -0.895000000
H    -2.377000000    -5.902000000    -0.924000000
O    -1.015000000    -3.454000000    -3.498000000
H    -1.271000000    -2.820000000    -1.639000000
C    -3.823000000    -1.702000000    -2.739000000
C    -3.446000000    -1.888000000    -4.212000000
H    -4.018000000    -1.301000000    -4.934000000
H    -3.456000000    -2.924000000    -4.557000000
C    -2.048000000    -1.337000000    -4.329000000
C    -1.811000000    -0.002000000    -4.707000000
H    -2.600000000     0.721000000    -4.900000000
C    -0.939000000    -2.181000000    -4.008000000
C     0.376000000    -1.685000000    -4.112000000
H     1.240000000    -2.310000000    -3.902000000
C     0.610000000    -0.362000000    -4.495000000
O     1.924000000     0.025000000    -4.315000000
C     2.239000000     0.853000000    -3.168000000
C     3.629000000     0.477000000    -2.598000000
C     4.156000000    -0.853000000    -2.761000000
H     3.529000000    -1.573000000    -3.281000000
C     4.242000000     1.317000000    -1.711000000
H     3.813000000     2.308000000    -1.584000000
O     2.198000000     2.247000000    -3.585000000
H     1.462000000     0.745000000    -2.397000000
C    -0.502000000     0.488000000    -4.813000000
C    -0.266000000     1.949000000    -5.173000000
H    -1.107000000     2.366000000    -5.732000000
H     0.594000000     1.957000000    -5.846000000
C    -0.107000000     2.856000000    -3.997000000
C     1.106000000     3.065000000    -3.377000000
C     1.149000000     3.776000000    -2.230000000
H     2.062000000     3.801000000    -1.640000000
C     0.007000000     4.369000000    -1.674000000
O     0.149000000     5.096000000    -0.507000000
C    -0.089000000     4.307000000     0.683000000
H     0.065000000     3.253000000     0.409000000
C     1.016000000     4.641000000     1.737000000
C     0.729000000     4.401000000     3.095000000
H    -0.273000000     4.144000000     3.428000000
C     2.250000000     5.082000000     1.314000000
H     2.443000000     5.447000000     0.309000000
C     3.178000000     5.289000000     2.308000000
O     4.400000000     5.854000000     1.940000000
C     3.009000000     4.876000000     3.653000000
H     3.833000000     5.033000000     4.345000000
C     1.736000000     4.400000000     4.009000000
O     1.572000000     3.978000000     5.331000000
C     0.448000000     3.420000000     5.799000000
C     0.176000000     2.042000000     5.781000000
H     0.918000000     1.314000000     5.464000000
C    -0.541000000     4.266000000     6.348000000
H    -0.312000000     5.326000000     6.285000000
C    -1.731000000     3.697000000     6.825000000
H    -2.463000000     4.290000000     7.368000000
C    -1.977000000     2.337000000     6.810000000
H    -2.894000000     1.923000000     7.219000000
C    -1.061000000     1.480000000     6.275000000
O    -1.255000000     0.078000000     6.375000000
C    -1.775000000    -0.643000000     5.231000000
C    -1.560000000    -2.011000000     5.245000000
H    -1.084000000    -2.421000000     6.131000000
C    -2.128000000    -2.762000000     4.229000000
O    -1.995000000    -4.136000000     4.298000000
C    -2.630000000    -4.935000000     3.396000000
C    -1.816000000    -5.477000000     2.446000000
H    -0.779000000    -5.155000000     2.405000000
C    -3.928000000    -5.534000000     3.545000000
H    -4.568000000    -5.119000000     4.319000000
C    -4.353000000    -6.650000000     2.811000000
H    -5.358000000    -7.045000000     2.935000000
C    -3.426000000    -7.282000000     2.027000000
H    -3.716000000    -8.130000000     1.413000000
C    -2.186000000    -6.682000000     1.815000000
O    -1.315000000    -7.291000000     0.970000000
C    -0.610000000    -6.575000000    -0.003000000
C     0.780000000    -6.354000000     0.168000000
H     1.387000000    -6.912000000     0.877000000
C     1.415000000    -5.369000000    -0.567000000
O     2.796000000    -5.154000000    -0.425000000
C     3.640000000    -4.868000000    -1.506000000
C     4.327000000    -3.673000000    -1.429000000
H     4.074000000    -2.905000000    -0.703000000
C     3.968000000    -5.837000000    -2.430000000
H     3.330000000    -6.713000000    -2.527000000
C     5.019000000    -5.717000000    -3.320000000
H     5.372000000    -6.434000000    -4.057000000
C     5.668000000    -4.484000000    -3.210000000
H     6.551000000    -4.327000000    -3.823000000
C     5.298000000    -3.476000000    -2.347000000
O     6.053000000    -2.371000000    -2.310000000
C     5.410000000    -1.156000000    -2.223000000
C     6.020000000    -0.248000000    -1.366000000
H     6.963000000    -0.460000000    -0.870000000
C     5.399000000     0.952000000    -1.061000000
O     5.951000000     1.740000000    -0.019000000
C     5.947000000     3.147000000     0.059000000
C     6.458000000     3.860000000    -1.017000000
H     6.819000000     3.307000000    -1.881000000
C     6.484000000     5.241000000    -0.981000000
H     6.967000000     5.899000000    -1.699000000
C     5.768000000     5.872000000     0.026000000
H     5.630000000     6.949000000    -0.021000000
C     5.092000000     5.154000000     1.009000000
C     5.204000000     3.767000000     1.056000000
H     4.678000000     3.279000000     1.872000000
C     1.053000000     0.240000000     2.410000000
H     1.072000000     0.796000000     3.344000000
C     0.081000000     0.572000000     1.447000000
H    -0.696000000     1.301000000     1.659000000
C     0.062000000    -0.082000000     0.206000000
H    -0.808000000     0.045000000    -0.545000000
C     1.052000000    -1.003000000    -0.093000000
H     1.038000000    -1.444000000    -1.087000000
C     1.936000000    -1.460000000     0.890000000
H     2.546000000    -2.351000000     0.762000000
C     2.012000000    -0.753000000     2.108000000
C     3.114000000    -1.063000000     3.114000000
O     3.951000000    -1.853000000     2.819000000
O     3.150000000    -0.542000000     4.189000000
O     9.266000000    -4.267000000     2.982000000
H     9.252000000    -3.351000000     2.703000000
H     8.367000000    -4.570000000     2.854000000
O     4.436000000     0.783000000     6.091000000
H     5.236000000     0.258000000     6.062000000
H     3.900000000     0.443000000     5.373000000
O     1.044000000    -4.386000000     4.880000000
H     1.366000000    -4.199000000     5.762000000
H     0.096000000    -4.473000000     4.985000000
O     2.334000000    -1.430000000     9.295000000
H     1.711000000    -1.120000000     9.953000000
H     2.954000000    -1.968000000     9.787000000
O     7.494000000    -4.879000000     0.225000000
H     6.967000000    -4.403000000    -0.418000000
H     7.805000000    -5.652000000    -0.246000000
O     8.177000000    -0.029000000     4.030000000
H     7.523000000    -0.677000000     4.290000000
H     8.358000000     0.463000000     4.831000000
O     4.837000000     3.511000000     5.935000000
H     4.651000000     2.573000000     5.897000000
H     4.121000000     3.877000000     6.456000000
O     5.661000000    -2.115000000     1.024000000
H     4.986000000    -1.974000000     1.688000000
H     5.502000000    -1.432000000     0.372000000
O     2.596000000     0.964000000     8.016000000
H     2.202000000     0.091000000     8.029000000
H     3.048000000     1.010000000     7.174000000
O     3.744000000    -6.334000000     5.657000000
H     3.671000000    -5.586000000     5.064000000
H     4.573000000    -6.197000000     6.115000000
O     9.363000000     1.657000000     2.231000000
H     8.784000000     1.144000000     2.794000000
H     9.015000000     2.548000000     2.280000000
O     2.096000000    -8.273000000     4.469000000
H     2.506000000    -7.408000000     4.433000000
H     1.631000000    -8.283000000     5.305000000
O     5.238000000    -0.309000000     8.934000000
H     4.646000000     0.379000000     8.632000000
H     5.097000000    -1.032000000     8.322000000
O     6.163000000    -5.378000000     2.848000000
H     6.523000000    -5.088000000     2.010000000
H     5.439000000    -4.776000000     3.019000000
O     8.182000000    -1.195000000     1.460000000
H     7.348000000    -1.663000000     1.410000000
H     8.081000000    -0.606000000     2.208000000
O     3.595000000    -4.199000000     3.740000000
H     2.648000000    -4.319000000     3.812000000
H     3.699000000    -3.301000000     3.424000000
O     5.219000000    -3.210000000     7.132000000
H     5.841000000    -3.937000000     7.169000000
H     4.539000000    -3.508000000     6.528000000
O     1.682000000    -3.595000000     7.388000000
H     1.590000000    -4.210000000     8.116000000
H     1.820000000    -2.746000000     7.807000000
O     5.911000000    -1.607000000     4.605000000
H     5.263000000    -1.656000000     3.902000000
H     5.478000000    -2.009000000     5.358000000
