215
-1455.12834
C    -4.273000000     1.686000000     3.256000000
H    -3.763000000     2.643000000     3.323000000
C    -3.449000000     0.664000000     3.791000000
C    -4.052000000    -0.629000000     3.945000000
H    -3.455000000    -1.477000000     4.272000000
C    -1.985000000     0.992000000     4.064000000
O    -1.666000000     2.368000000     4.319000000
H    -1.432000000     0.687000000     3.163000000
O    -1.453000000     0.152000000     5.133000000
C    -0.299000000    -0.473000000     4.761000000
C    -0.355000000    -1.721000000     4.149000000
H    -1.339000000    -2.174000000     4.058000000
C     0.822000000    -2.426000000     3.788000000
O     0.812000000    -3.644000000     3.062000000
C     2.080000000    -1.812000000     3.988000000
C     3.383000000    -2.366000000     3.528000000
H     4.176000000    -1.968000000     4.164000000
C     3.737000000    -2.187000000     2.076000000
C     4.360000000    -0.990000000     1.738000000
H     4.633000000    -0.304000000     2.536000000
H     3.442000000    -3.414000000     3.830000000
C     2.065000000    -0.563000000     4.434000000
H     3.035000000    -0.073000000     4.477000000
C     0.971000000     0.150000000     4.797000000
C     1.085000000     1.588000000     5.322000000
H     2.056000000     1.790000000     5.779000000
H     0.510000000     1.783000000     6.230000000
C     0.750000000     2.633000000     4.275000000
C     1.781000000     3.240000000     3.594000000
H     2.790000000     2.900000000     3.811000000
C    -0.531000000     2.888000000     3.789000000
C    -0.770000000     3.798000000     2.729000000
H    -1.789000000     4.050000000     2.447000000
C     0.280000000     4.274000000     1.940000000
O    -0.112000000     4.843000000     0.708000000
C     0.128000000     4.049000000    -0.488000000
C    -1.012000000     4.021000000    -1.497000000
C    -0.769000000     3.658000000    -2.789000000
H     0.210000000     3.279000000    -3.073000000
C    -2.283000000     4.268000000    -1.125000000
H    -2.443000000     4.323000000    -0.051000000
O     1.414000000     4.402000000    -1.082000000
H     0.182000000     3.016000000    -0.114000000
C     1.596000000     4.034000000     2.398000000
C     2.746000000     4.550000000     1.549000000
H     3.578000000     4.794000000     2.213000000
H     2.459000000     5.513000000     1.122000000
C     3.178000000     3.565000000     0.460000000
C     4.298000000     2.715000000     0.668000000
H     4.843000000     2.670000000     1.607000000
C     2.534000000     3.530000000    -0.795000000
C     2.966000000     2.735000000    -1.761000000
H     2.503000000     2.810000000    -2.742000000
C     3.959000000     1.754000000    -1.558000000
O     4.209000000     0.865000000    -2.556000000
C     3.641000000    -0.358000000    -2.464000000
C     3.175000000    -0.850000000    -3.788000000
C     2.793000000     0.107000000    -4.739000000
H     2.969000000     1.158000000    -4.526000000
C     3.084000000    -2.204000000    -4.149000000
H     3.369000000    -2.910000000    -3.373000000
O     4.424000000    -1.378000000    -1.909000000
H     2.667000000    -0.238000000    -1.967000000
C     4.595000000     1.719000000    -0.272000000
C     5.496000000     0.576000000     0.039000000
H     6.265000000     0.927000000     0.731000000
H     5.977000000     0.309000000    -0.904000000
C     4.690000000    -0.672000000     0.419000000
C     4.239000000    -1.564000000    -0.564000000
C     3.572000000    -2.760000000    -0.212000000
H     3.179000000    -3.451000000    -0.953000000
C     3.327000000    -3.051000000     1.115000000
O     2.418000000    -4.050000000     1.424000000
C     1.093000000    -3.584000000     1.641000000
H     0.965000000    -2.549000000     1.291000000
C     0.123000000    -4.343000000     0.840000000
C    -1.182000000    -4.404000000     1.282000000
H    -1.579000000    -3.887000000     2.152000000
C     0.537000000    -4.979000000    -0.357000000
H     1.553000000    -5.120000000    -0.717000000
C    -0.496000000    -5.415000000    -1.211000000
O    -0.334000000    -5.891000000    -2.466000000
C    -1.793000000    -5.325000000    -0.870000000
H    -2.520000000    -5.781000000    -1.538000000
C    -2.157000000    -4.856000000     0.433000000
O    -3.497000000    -4.903000000     0.803000000
C    -3.924000000    -4.603000000     2.050000000
C    -4.766000000    -3.553000000     2.277000000
H    -5.079000000    -2.889000000     1.475000000
C    -3.697000000    -5.511000000     3.050000000
H    -3.079000000    -6.386000000     2.864000000
C    -4.239000000    -5.324000000     4.355000000
H    -4.002000000    -5.987000000     5.183000000
C    -5.047000000    -4.196000000     4.569000000
H    -5.279000000    -3.920000000     5.595000000
C    -5.218000000    -3.245000000     3.566000000
O    -5.922000000    -2.073000000     3.787000000
C    -5.385000000    -0.857000000     3.560000000
C    -6.147000000     0.178000000     3.021000000
H    -7.213000000     0.008000000     2.896000000
C    -5.586000000     1.450000000     2.786000000
O    -6.306000000     2.619000000     2.541000000
C    -5.912000000     3.601000000     1.656000000
C    -5.412000000     3.390000000     0.318000000
H    -5.269000000     2.380000000    -0.058000000
C    -5.937000000     4.857000000     2.128000000
H    -6.344000000     5.029000000     3.121000000
C    -5.506000000     5.957000000     1.366000000
H    -5.622000000     6.973000000     1.735000000
C    -5.111000000     5.786000000     0.046000000
H    -4.815000000     6.591000000    -0.623000000
C    -5.043000000     4.500000000    -0.451000000
O    -4.636000000     4.319000000    -1.710000000
C    -3.334000000     4.094000000    -2.034000000
C    -3.038000000     3.972000000    -3.390000000
H    -3.855000000     3.807000000    -4.088000000
C    -1.752000000     3.663000000    -3.757000000
O    -1.496000000     3.389000000    -5.098000000
C    -0.248000000     3.332000000    -5.675000000
C     0.278000000     2.117000000    -5.904000000
H    -0.297000000     1.231000000    -5.648000000
C     0.413000000     4.525000000    -5.965000000
H    -0.039000000     5.485000000    -5.728000000
C     1.716000000     4.406000000    -6.491000000
H     2.332000000     5.296000000    -6.598000000
C     2.267000000     3.129000000    -6.799000000
H     3.271000000     3.020000000    -7.201000000
C     1.467000000     2.012000000    -6.582000000
O     1.966000000     0.748000000    -6.973000000
C     2.332000000    -0.273000000    -6.010000000
C     2.147000000    -1.651000000    -6.310000000
H     1.866000000    -1.969000000    -7.311000000
C     2.640000000    -2.577000000    -5.432000000
O     2.486000000    -3.904000000    -5.816000000
C     2.281000000    -4.921000000    -4.944000000
C     3.278000000    -5.887000000    -4.659000000
H     4.284000000    -5.736000000    -5.042000000
C     3.021000000    -6.948000000    -3.796000000
H     3.752000000    -7.728000000    -3.599000000
C     1.810000000    -6.911000000    -3.042000000
H     1.700000000    -7.653000000    -2.255000000
C     0.838000000    -5.878000000    -3.197000000
C     1.087000000    -4.901000000    -4.210000000
H     0.409000000    -4.087000000    -4.456000000
C    -2.556000000    -0.544000000    -0.151000000
H    -3.537000000    -0.165000000     0.123000000
C    -1.443000000     0.103000000     0.350000000
H    -1.626000000     0.867000000     1.101000000
C    -0.180000000    -0.338000000    -0.017000000
H     0.705000000     0.049000000     0.477000000
C    -0.061000000    -1.333000000    -0.951000000
H     0.945000000    -1.627000000    -1.241000000
C    -1.185000000    -1.794000000    -1.626000000
H    -0.965000000    -2.557000000    -2.368000000
C    -2.517000000    -1.442000000    -1.227000000
C    -3.773000000    -1.979000000    -1.890000000
O    -3.656000000    -2.786000000    -2.803000000
O    -4.841000000    -1.557000000    -1.518000000
O    -8.596000000    -2.043000000    -2.403000000
H    -9.057000000    -2.692000000    -2.934000000
H    -8.158000000    -1.480000000    -3.041000000
O    -7.641000000    -6.626000000    -2.928000000
H    -8.277000000    -6.344000000    -2.270000000
H    -6.952000000    -5.963000000    -2.894000000
O    -6.214000000    -1.246000000    -3.837000000
H    -5.906000000    -1.873000000    -3.182000000
H    -5.465000000    -0.669000000    -3.986000000
O    -4.559000000     0.761000000    -4.985000000
H    -5.151000000     1.492000000    -5.159000000
H    -4.041000000     0.676000000    -5.785000000
O    -8.981000000    -3.220000000     1.135000000
H    -8.084000000    -3.334000000     0.823000000
H    -9.279000000    -2.411000000     0.718000000
O    -3.166000000    -4.983000000    -4.304000000
H    -3.811000000    -5.653000000    -4.077000000
H    -3.337000000    -4.268000000    -3.692000000
O    -6.914000000    -3.110000000    -0.432000000
H    -6.096000000    -2.804000000    -0.824000000
H    -7.598000000    -2.761000000    -1.003000000
O    -6.602000000     0.255000000    -0.381000000
H    -6.905000000     0.625000000    -1.211000000
H    -5.872000000    -0.314000000    -0.626000000
O    -1.673000000    -3.520000000    -6.343000000
H    -2.003000000    -2.634000000    -6.192000000
H    -2.270000000    -4.084000000    -5.850000000
O    -2.773000000    -1.414000000    -5.257000000
H    -2.422000000    -0.649000000    -4.801000000
H    -3.278000000    -1.880000000    -4.590000000
O    -6.261000000    -3.206000000    -5.596000000
H    -6.256000000    -2.647000000    -4.818000000
H    -6.406000000    -4.089000000    -5.255000000
O    -8.263000000    -0.226000000    -5.118000000
H    -8.539000000     0.520000000    -4.584000000
H    -7.370000000    -0.411000000    -4.826000000
O    -9.267000000    -0.689000000    -0.074000000
H    -8.336000000    -0.498000000     0.037000000
H    -9.375000000    -0.815000000    -1.017000000
O    -5.472000000    -4.856000000    -2.682000000
H    -4.786000000    -4.201000000    -2.558000000
H    -5.370000000    -5.454000000    -1.942000000
O    -6.667000000     2.194000000    -2.509000000
H    -6.677000000     2.398000000    -3.445000000
H    -6.792000000     3.039000000    -2.078000000
O    -4.147000000    -0.344000000    -7.556000000
H    -3.247000000    -0.661000000    -7.633000000
H    -4.529000000    -0.878000000    -6.859000000
O    -6.203000000    -6.434000000     1.254000000
H    -6.964000000    -6.061000000     1.698000000
H    -5.497000000    -5.810000000     1.425000000
O    -1.367000000     0.386000000    -3.436000000
H    -1.879000000     1.193000000    -3.480000000
H    -1.409000000     0.125000000    -2.516000000
O    -5.219000000    -7.096000000    -1.237000000
H    -5.588000000    -6.837000000    -0.392000000
H    -4.786000000    -7.932000000    -1.063000000
