215
-1453.99958
C    -4.067000000     1.869000000     2.749000000
H    -3.593000000     2.705000000     2.240000000
C    -3.252000000     1.206000000     3.710000000
C    -3.733000000     0.031000000     4.305000000
H    -3.081000000    -0.468000000     5.017000000
C    -1.716000000     1.471000000     3.859000000
O    -1.629000000     2.903000000     4.084000000
H    -1.298000000     1.222000000     2.873000000
O    -1.140000000     0.749000000     4.982000000
C     0.101000000     0.149000000     4.699000000
C     0.131000000    -1.171000000     4.378000000
H    -0.776000000    -1.759000000     4.269000000
C     1.303000000    -1.758000000     4.123000000
O     1.224000000    -3.041000000     3.592000000
C     2.513000000    -1.077000000     4.177000000
C     3.757000000    -1.751000000     3.777000000
H     4.630000000    -1.398000000     4.329000000
C     4.041000000    -1.696000000     2.296000000
C     4.653000000    -0.578000000     1.777000000
H     4.997000000     0.247000000     2.396000000
H     3.727000000    -2.803000000     4.068000000
C     2.487000000     0.278000000     4.418000000
H     3.386000000     0.889000000     4.450000000
C     1.257000000     0.902000000     4.638000000
C     1.171000000     2.437000000     4.905000000
H     2.041000000     2.889000000     5.385000000
H     0.414000000     2.551000000     5.684000000
C     0.735000000     3.169000000     3.646000000
C     1.788000000     3.604000000     2.762000000
H     2.800000000     3.267000000     2.969000000
C    -0.581000000     3.447000000     3.384000000
C    -0.924000000     4.126000000     2.184000000
H    -1.965000000     4.361000000     1.978000000
C     0.119000000     4.549000000     1.363000000
O    -0.145000000     5.092000000     0.113000000
C    -0.061000000     4.140000000    -1.022000000
C    -1.199000000     4.237000000    -1.955000000
C    -0.936000000     3.703000000    -3.248000000
H     0.020000000     3.255000000    -3.507000000
C    -2.483000000     4.659000000    -1.649000000
H    -2.746000000     4.991000000    -0.647000000
O     1.206000000     4.425000000    -1.760000000
H    -0.008000000     3.099000000    -0.671000000
C     1.445000000     4.395000000     1.691000000
C     2.551000000     4.830000000     0.748000000
H     3.424000000     5.084000000     1.353000000
H     2.248000000     5.767000000     0.278000000
C     2.847000000     3.694000000    -0.165000000
C     3.756000000     2.751000000     0.259000000
H     4.141000000     2.807000000     1.274000000
C     2.303000000     3.671000000    -1.448000000
C     2.615000000     2.551000000    -2.251000000
H     2.046000000     2.313000000    -3.146000000
C     3.572000000     1.635000000    -1.847000000
O     3.860000000     0.658000000    -2.721000000
C     3.437000000    -0.595000000    -2.443000000
C     2.931000000    -1.254000000    -3.673000000
C     2.502000000    -0.473000000    -4.771000000
H     2.495000000     0.614000000    -4.793000000
C     2.913000000    -2.658000000    -3.739000000
H     3.313000000    -3.204000000    -2.889000000
O     4.512000000    -1.351000000    -1.851000000
H     2.615000000    -0.535000000    -1.714000000
C     4.198000000     1.775000000    -0.634000000
C     5.334000000     0.847000000    -0.147000000
H     6.013000000     1.359000000     0.539000000
H     5.986000000     0.656000000    -1.003000000
C     4.830000000    -0.430000000     0.404000000
C     4.469000000    -1.479000000    -0.471000000
C     3.763000000    -2.561000000     0.038000000
H     3.278000000    -3.294000000    -0.601000000
C     3.595000000    -2.731000000     1.444000000
O     2.748000000    -3.665000000     1.855000000
C     1.389000000    -3.183000000     2.184000000
H     1.331000000    -2.162000000     1.780000000
C     0.304000000    -4.070000000     1.474000000
C    -1.080000000    -3.974000000     1.792000000
H    -1.399000000    -3.301000000     2.584000000
C     0.671000000    -5.019000000     0.438000000
H     1.702000000    -5.273000000     0.205000000
C    -0.310000000    -5.689000000    -0.289000000
O     0.147000000    -6.650000000    -1.243000000
C    -1.679000000    -5.569000000     0.015000000
H    -2.416000000    -6.109000000    -0.574000000
C    -2.028000000    -4.746000000     1.050000000
O    -3.355000000    -4.738000000     1.457000000
C    -3.850000000    -4.509000000     2.710000000
C    -4.368000000    -3.215000000     2.991000000
H    -4.439000000    -2.526000000     2.153000000
C    -3.838000000    -5.510000000     3.643000000
H    -3.638000000    -6.533000000     3.336000000
C    -4.333000000    -5.135000000     4.865000000
H    -4.237000000    -5.849000000     5.678000000
C    -4.892000000    -3.907000000     5.203000000
H    -5.180000000    -3.662000000     6.222000000
C    -4.911000000    -2.905000000     4.251000000
O    -5.422000000    -1.657000000     4.584000000
C    -5.034000000    -0.443000000     4.026000000
C    -5.827000000     0.255000000     3.044000000
H    -6.763000000    -0.248000000     2.814000000
C    -5.328000000     1.376000000     2.432000000
O    -6.071000000     1.892000000     1.421000000
C    -5.758000000     3.177000000     0.920000000
C    -5.446000000     3.307000000    -0.412000000
H    -5.396000000     2.388000000    -0.992000000
C    -5.936000000     4.351000000     1.670000000
H    -6.406000000     4.217000000     2.641000000
C    -5.624000000     5.617000000     1.106000000
H    -5.805000000     6.529000000     1.669000000
C    -5.200000000     5.716000000    -0.242000000
H    -4.983000000     6.618000000    -0.809000000
C    -5.182000000     4.529000000    -1.030000000
O    -4.748000000     4.635000000    -2.274000000
C    -3.452000000     4.472000000    -2.623000000
C    -3.240000000     3.871000000    -3.799000000
H    -4.150000000     3.604000000    -4.331000000
C    -1.927000000     3.564000000    -4.194000000
O    -1.744000000     2.934000000    -5.450000000
C    -0.560000000     2.710000000    -6.029000000
C    -0.256000000     1.336000000    -6.291000000
H    -0.952000000     0.512000000    -6.158000000
C     0.355000000     3.767000000    -6.225000000
H    -0.048000000     4.771000000    -6.120000000
C     1.627000000     3.409000000    -6.787000000
H     2.273000000     4.255000000    -7.006000000
C     1.908000000     2.099000000    -7.123000000
H     2.846000000     1.844000000    -7.610000000
C     1.009000000     1.013000000    -6.818000000
O     1.443000000    -0.321000000    -6.961000000
C     1.854000000    -1.079000000    -5.899000000
C     1.855000000    -2.459000000    -5.926000000
H     1.481000000    -2.940000000    -6.826000000
C     2.395000000    -3.251000000    -4.922000000
O     2.358000000    -4.626000000    -5.060000000
C     2.263000000    -5.564000000    -4.002000000
C     3.156000000    -6.639000000    -4.061000000
H     3.894000000    -6.619000000    -4.859000000
C     3.142000000    -7.645000000    -3.115000000
H     3.749000000    -8.545000000    -3.164000000
C     2.107000000    -7.645000000    -2.188000000
H     2.171000000    -8.418000000    -1.426000000
C     1.195000000    -6.579000000    -2.146000000
C     1.196000000    -5.528000000    -3.075000000
H     0.497000000    -4.698000000    -3.009000000
C    -2.321000000    -0.337000000    -0.699000000
H    -3.265000000     0.197000000    -0.634000000
C    -1.192000000     0.168000000     0.006000000
H    -1.213000000     1.095000000     0.572000000
C    -0.017000000    -0.553000000    -0.065000000
H     0.885000000    -0.264000000     0.391000000
C    -0.010000000    -1.752000000    -0.744000000
H     0.899000000    -2.346000000    -0.789000000
C    -1.091000000    -2.297000000    -1.382000000
H    -1.075000000    -3.235000000    -1.930000000
C    -2.269000000    -1.593000000    -1.336000000
C    -3.599000000    -2.154000000    -1.760000000
O    -3.647000000    -3.152000000    -2.423000000
O    -4.626000000    -1.628000000    -1.368000000
O    -7.731000000    -5.650000000    -1.511000000
H    -8.081000000    -4.770000000    -1.373000000
H    -6.981000000    -5.521000000    -2.092000000
O    -5.694000000    -1.254000000    -4.352000000
H    -5.693000000    -1.735000000    -3.525000000
H    -4.916000000    -0.699000000    -4.308000000
O    -3.151000000     0.398000000    -4.823000000
H    -3.844000000     0.978000000    -5.138000000
H    -2.389000000     0.968000000    -4.723000000
O    -8.379000000    -3.055000000     2.296000000
H    -7.760000000    -2.938000000     1.575000000
H    -8.166000000    -3.916000000     2.657000000
O    -2.193000000    -4.937000000    -3.659000000
H    -2.568000000    -5.666000000    -3.165000000
H    -2.837000000    -4.234000000    -3.573000000
O    -6.586000000    -3.072000000     0.286000000
H    -7.078000000    -3.361000000    -0.482000000
H    -5.918000000    -2.482000000    -0.064000000
O    -0.432000000    -5.918000000    -5.706000000
H    -0.176000000    -5.287000000    -6.378000000
H    -0.991000000    -5.420000000    -5.110000000
O    -6.820000000    -0.461000000    -1.844000000
H    -6.569000000     0.273000000    -2.405000000
H    -5.999000000    -0.922000000    -1.672000000
O    -3.598000000    -3.932000000    -6.520000000
H    -3.061000000    -3.466000000    -5.879000000
H    -4.077000000    -4.580000000    -6.003000000
O    -8.338000000     0.404000000     0.249000000
H    -7.737000000     0.707000000     0.930000000
H    -7.767000000     0.110000000    -0.461000000
O    -2.254000000    -2.170000000    -5.095000000
H    -2.617000000    -1.286000000    -5.048000000
H    -1.773000000    -2.276000000    -4.274000000
O    -6.867000000    -3.409000000    -5.098000000
H    -6.487000000    -2.548000000    -5.273000000
H    -6.513000000    -3.658000000    -4.244000000
O    -8.230000000    -0.576000000    -4.823000000
H    -8.013000000    -0.612000000    -3.891000000
H    -7.388000000    -0.677000000    -5.268000000
O    -8.747000000    -3.012000000    -1.261000000
H    -9.098000000    -3.225000000    -2.126000000
H    -9.387000000    -2.406000000    -0.886000000
O    -4.402000000    -7.199000000    -2.823000000
H    -4.061000000    -8.058000000    -2.575000000
H    -4.562000000    -6.755000000    -1.990000000
O    -5.829000000    -4.634000000    -2.983000000
H    -5.267000000    -3.921000000    -2.681000000
H    -5.362000000    -5.431000000    -2.731000000
O    -6.154000000     1.719000000    -3.527000000
H    -5.975000000     1.580000000    -4.457000000
H    -6.466000000     2.623000000    -3.475000000
O    -0.653000000     0.487000000    -3.016000000
H     0.010000000    -0.204000000    -3.004000000
H    -0.771000000     0.721000000    -2.095000000
O    -4.994000000    -6.287000000    -0.448000000
H    -5.254000000    -6.730000000     0.360000000
H    -4.613000000    -5.459000000    -0.155000000
