215
-1471.38279
C    -4.099000000     0.322000000     2.097000000
H    -3.906000000     1.390000000     2.171000000
C    -3.156000000    -0.527000000     2.741000000
C    -3.432000000    -1.863000000     2.755000000
H    -2.762000000    -2.581000000     3.221000000
C    -1.885000000     0.098000000     3.366000000
O    -2.049000000     1.351000000     4.032000000
H    -1.119000000     0.176000000     2.580000000
O    -1.331000000    -0.751000000     4.434000000
C    -0.001000000    -1.023000000     4.347000000
C     0.403000000    -2.256000000     3.807000000
H    -0.333000000    -3.009000000     3.536000000
C     1.760000000    -2.584000000     3.612000000
O     2.055000000    -3.762000000     2.953000000
C     2.707000000    -1.619000000     3.920000000
C     4.129000000    -1.861000000     3.619000000
H     4.747000000    -1.294000000     4.318000000
C     4.472000000    -1.406000000     2.194000000
C     4.812000000    -0.059000000     1.787000000
H     4.752000000     0.691000000     2.571000000
H     4.454000000    -2.885000000     3.815000000
C     2.303000000    -0.394000000     4.449000000
H     3.053000000     0.354000000     4.694000000
C     0.938000000    -0.081000000     4.723000000
C     0.538000000     1.268000000     5.336000000
H     1.421000000     1.593000000     5.890000000
H    -0.303000000     1.138000000     6.021000000
C     0.203000000     2.289000000     4.261000000
C     1.115000000     3.192000000     3.820000000
H     2.141000000     3.077000000     4.160000000
C    -1.082000000     2.266000000     3.699000000
C    -1.385000000     3.310000000     2.806000000
H    -2.312000000     3.216000000     2.247000000
C    -0.461000000     4.224000000     2.412000000
O    -0.775000000     5.156000000     1.463000000
C    -0.474000000     4.686000000     0.173000000
C    -1.634000000     5.064000000    -0.713000000
C    -1.346000000     5.339000000    -2.085000000
H    -0.361000000     5.101000000    -2.480000000
C    -2.929000000     5.042000000    -0.369000000
H    -3.174000000     4.862000000     0.675000000
O     0.795000000     5.182000000    -0.304000000
H    -0.447000000     3.588000000     0.119000000
C     0.803000000     4.139000000     2.891000000
C     1.963000000     4.939000000     2.345000000
H     2.813000000     4.889000000     3.030000000
H     1.635000000     5.968000000     2.187000000
C     2.552000000     4.294000000     1.089000000
C     3.662000000     3.450000000     1.175000000
H     4.221000000     3.346000000     2.101000000
C     1.899000000     4.443000000    -0.215000000
C     2.257000000     3.731000000    -1.306000000
H     1.550000000     3.769000000    -2.131000000
C     3.338000000     2.835000000    -1.172000000
O     3.508000000     2.000000000    -2.204000000
C     3.226000000     0.608000000    -2.046000000
C     2.414000000     0.073000000    -3.204000000
C     1.258000000     0.795000000    -3.477000000
H     0.956000000     1.746000000    -3.045000000
C     2.769000000    -1.073000000    -3.965000000
H     3.686000000    -1.612000000    -3.743000000
O     4.493000000    -0.116000000    -1.777000000
H     2.612000000     0.467000000    -1.145000000
C     4.096000000     2.775000000     0.017000000
C     5.307000000     1.855000000     0.163000000
H     5.990000000     2.224000000     0.931000000
H     5.835000000     1.889000000    -0.792000000
C     4.969000000     0.377000000     0.483000000
C     4.751000000    -0.545000000    -0.531000000
C     4.401000000    -1.876000000    -0.231000000
H     4.241000000    -2.670000000    -0.956000000
C     4.361000000    -2.333000000     1.116000000
O     3.743000000    -3.559000000     1.285000000
C     2.316000000    -3.623000000     1.510000000
H     1.961000000    -2.631000000     1.193000000
C     1.661000000    -4.672000000     0.684000000
C     0.452000000    -5.241000000     1.081000000
H    -0.062000000    -4.964000000     1.998000000
C     2.266000000    -5.011000000    -0.525000000
H     3.250000000    -4.656000000    -0.820000000
C     1.625000000    -5.903000000    -1.408000000
O     2.252000000    -6.443000000    -2.497000000
C     0.382000000    -6.444000000    -0.997000000
H    -0.123000000    -7.082000000    -1.718000000
C    -0.217000000    -6.141000000     0.181000000
O    -1.446000000    -6.692000000     0.492000000
C    -2.311000000    -6.260000000     1.486000000
C    -3.161000000    -5.259000000     1.242000000
H    -3.233000000    -4.752000000     0.283000000
C    -2.160000000    -6.845000000     2.758000000
H    -1.324000000    -7.504000000     2.982000000
C    -3.127000000    -6.511000000     3.710000000
H    -3.105000000    -6.859000000     4.740000000
C    -4.065000000    -5.517000000     3.488000000
H    -4.850000000    -5.269000000     4.198000000
C    -4.024000000    -4.834000000     2.306000000
O    -4.888000000    -3.758000000     2.088000000
C    -4.583000000    -2.384000000     2.088000000
C    -5.460000000    -1.488000000     1.425000000
H    -6.246000000    -1.981000000     0.858000000
C    -5.205000000    -0.146000000     1.357000000
O    -6.016000000     0.734000000     0.616000000
C    -6.044000000     2.168000000     0.742000000
C    -5.646000000     3.004000000    -0.237000000
H    -5.286000000     2.485000000    -1.122000000
C    -6.740000000     2.622000000     1.906000000
H    -7.034000000     2.048000000     2.781000000
C    -6.960000000     3.944000000     2.023000000
H    -7.557000000     4.255000000     2.877000000
C    -6.495000000     4.864000000     1.066000000
H    -6.528000000     5.923000000     1.311000000
C    -5.849000000     4.401000000    -0.082000000
O    -5.288000000     5.343000000    -0.914000000
C    -3.945000000     5.231000000    -1.304000000
C    -3.689000000     5.475000000    -2.590000000
H    -4.432000000     5.457000000    -3.382000000
C    -2.355000000     5.513000000    -2.998000000
O    -2.089000000     5.588000000    -4.381000000
C    -1.423000000     4.527000000    -4.915000000
C    -1.525000000     3.244000000    -4.428000000
H    -2.081000000     2.932000000    -3.548000000
C    -0.616000000     4.765000000    -6.037000000
H    -0.523000000     5.789000000    -6.388000000
C    -0.055000000     3.677000000    -6.714000000
H     0.612000000     3.887000000    -7.546000000
C    -0.212000000     2.434000000    -6.244000000
H     0.273000000     1.580000000    -6.710000000
C    -0.862000000     2.224000000    -5.036000000
O    -0.851000000     0.952000000    -4.485000000
C     0.303000000     0.224000000    -4.320000000
C     0.614000000    -0.963000000    -5.022000000
H     0.003000000    -1.299000000    -5.855000000
C     1.809000000    -1.625000000    -4.834000000
O     2.129000000    -2.706000000    -5.618000000
C     2.530000000    -3.945000000    -5.132000000
C     3.414000000    -4.631000000    -5.919000000
H     3.763000000    -4.254000000    -6.877000000
C     4.077000000    -5.749000000    -5.467000000
H     4.872000000    -6.227000000    -6.033000000
C     3.686000000    -6.321000000    -4.280000000
H     4.040000000    -7.278000000    -3.904000000
C     2.615000000    -5.756000000    -3.590000000
C     2.072000000    -4.524000000    -3.963000000
H     1.296000000    -4.017000000    -3.395000000
C    -2.228000000    -0.249000000    -0.992000000
H    -3.215000000     0.196000000    -1.090000000
C    -1.299000000     0.518000000    -0.240000000
H    -1.546000000     1.511000000     0.128000000
C    -0.084000000     0.020000000     0.050000000
H     0.619000000     0.606000000     0.703000000
C     0.323000000    -1.111000000    -0.602000000
H     1.331000000    -1.480000000    -0.430000000
C    -0.554000000    -1.916000000    -1.325000000
H    -0.202000000    -2.806000000    -1.841000000
C    -1.873000000    -1.492000000    -1.529000000
C    -2.949000000    -2.354000000    -2.145000000
O    -2.907000000    -3.560000000    -2.186000000
O    -3.937000000    -1.835000000    -2.567000000
O    -3.271000000    -7.871000000    -1.549000000
H    -2.785000000    -7.152000000    -1.146000000
H    -4.105000000    -7.889000000    -1.079000000
O    -7.720000000     0.597000000    -2.678000000
H    -6.837000000     0.803000000    -2.986000000
H    -8.080000000     0.018000000    -3.350000000
O    -8.936000000    -1.770000000    -3.713000000
H    -9.111000000    -2.396000000    -3.010000000
H    -8.580000000    -2.302000000    -4.424000000
O    -7.271000000    -3.580000000    -6.333000000
H    -7.481000000    -4.215000000    -5.648000000
H    -6.601000000    -4.012000000    -6.862000000
O    -2.598000000    -0.741000000    -6.482000000
H    -3.298000000    -1.152000000    -5.975000000
H    -2.208000000    -0.106000000    -5.881000000
O    -6.452000000    -0.813000000    -6.017000000
H    -6.080000000    -0.553000000    -6.860000000
H    -6.532000000    -1.765000000    -6.074000000
O    -5.108000000    -5.027000000    -2.098000000
H    -5.685000000    -4.265000000    -2.140000000
H    -4.228000000    -4.658000000    -2.025000000
O    -0.352000000    -7.084000000    -5.381000000
H     0.075000000    -6.372000000    -5.857000000
H    -0.879000000    -6.645000000    -4.714000000
O    -3.914000000    -4.133000000    -7.122000000
H    -4.135000000    -3.950000000    -6.209000000
H    -4.514000000    -4.833000000    -7.379000000
O    -4.582000000    -3.571000000    -4.502000000
H    -4.891000000    -4.380000000    -4.094000000
H    -4.670000000    -2.909000000    -3.816000000
O    -1.522000000    -3.444000000    -6.670000000
H    -1.556000000    -2.488000000    -6.720000000
H    -2.423000000    -3.725000000    -6.828000000
O    -3.506000000    -6.870000000    -4.175000000
H    -3.650000000    -7.042000000    -3.245000000
H    -3.118000000    -5.995000000    -4.200000000
O    -5.307000000     3.131000000    -3.818000000
H    -4.972000000     2.237000000    -3.747000000
H    -5.215000000     3.348000000    -4.746000000
O    -8.156000000    -4.114000000    -1.251000000
H    -8.674000000    -3.948000000    -0.464000000
H    -7.331000000    -3.653000000    -1.098000000
O     0.731000000    -5.110000000    -7.362000000
H     1.283000000    -4.546000000    -7.903000000
H     0.193000000    -4.503000000    -6.854000000
O    -7.193000000    -5.719000000    -4.405000000
H    -7.340000000    -6.660000000    -4.305000000
H    -6.563000000    -5.501000000    -3.718000000
O    -6.285000000    -2.568000000    -2.339000000
H    -5.373000000    -2.406000000    -2.100000000
H    -6.661000000    -1.695000000    -2.454000000
O    -1.682000000    -4.902000000    -4.161000000
H    -2.144000000    -4.346000000    -3.533000000
H    -1.528000000    -4.335000000    -4.916000000
O    -4.534000000     0.314000000    -3.874000000
H    -4.228000000    -0.340000000    -3.245000000
H    -5.062000000    -0.182000000    -4.498000000
