215
-1431.72672
C    -4.264000000     0.855000000     2.660000000
H    -3.941000000     1.873000000     2.458000000
C    -3.387000000    -0.018000000     3.345000000
C    -3.876000000    -1.265000000     3.667000000
H    -3.137000000    -1.907000000     4.140000000
C    -1.917000000     0.374000000     3.614000000
O    -1.788000000     1.670000000     4.153000000
H    -1.346000000     0.327000000     2.675000000
O    -1.287000000    -0.543000000     4.578000000
C     0.057000000    -0.948000000     4.448000000
C     0.260000000    -2.234000000     3.984000000
H    -0.555000000    -2.948000000     3.892000000
C     1.540000000    -2.709000000     3.661000000
O     1.525000000    -3.806000000     2.876000000
C     2.649000000    -1.810000000     3.864000000
C     4.029000000    -2.073000000     3.320000000
H     4.763000000    -1.484000000     3.873000000
C     4.266000000    -1.673000000     1.821000000
C     4.937000000    -0.489000000     1.441000000
H     5.364000000     0.194000000     2.171000000
H     4.259000000    -3.128000000     3.488000000
C     2.377000000    -0.578000000     4.467000000
H     3.134000000     0.202000000     4.455000000
C     1.064000000    -0.102000000     4.791000000
C     0.840000000     1.298000000     5.299000000
H     1.728000000     1.627000000     5.841000000
H     0.044000000     1.262000000     6.047000000
C     0.529000000     2.330000000     4.239000000
C     1.612000000     3.037000000     3.629000000
H     2.587000000     2.897000000     4.089000000
C    -0.734000000     2.452000000     3.722000000
C    -1.009000000     3.264000000     2.698000000
H    -1.989000000     3.282000000     2.229000000
C     0.004000000     3.979000000     2.111000000
O    -0.327000000     4.752000000     1.014000000
C    -0.110000000     4.210000000    -0.320000000
C    -1.334000000     4.465000000    -1.188000000
C    -1.227000000     4.653000000    -2.596000000
H    -0.267000000     4.490000000    -3.079000000
C    -2.645000000     4.550000000    -0.639000000
H    -2.696000000     4.372000000     0.432000000
O     1.094000000     4.832000000    -0.888000000
H    -0.054000000     3.112000000    -0.286000000
C     1.325000000     3.926000000     2.546000000
C     2.417000000     4.683000000     1.823000000
H     3.180000000     4.713000000     2.605000000
H     1.990000000     5.650000000     1.552000000
C     2.913000000     3.911000000     0.632000000
C     3.910000000     2.901000000     0.758000000
H     4.300000000     2.725000000     1.758000000
C     2.245000000     4.051000000    -0.589000000
C     2.746000000     3.419000000    -1.732000000
H     2.286000000     3.575000000    -2.705000000
C     3.754000000     2.480000000    -1.679000000
O     3.916000000     1.576000000    -2.765000000
C     3.404000000     0.198000000    -2.626000000
C     2.587000000    -0.273000000    -3.856000000
C     1.717000000     0.636000000    -4.553000000
H     1.634000000     1.652000000    -4.176000000
C     2.737000000    -1.577000000    -4.277000000
H     3.340000000    -2.230000000    -3.651000000
O     4.457000000    -0.671000000    -2.184000000
H     2.764000000     0.307000000    -1.738000000
C     4.334000000     2.199000000    -0.369000000
C     5.536000000     1.249000000    -0.245000000
H     6.257000000     1.617000000     0.488000000
H     6.042000000     1.200000000    -1.212000000
C     5.013000000    -0.096000000     0.118000000
C     4.521000000    -0.983000000    -0.881000000
C     3.920000000    -2.168000000    -0.512000000
H     3.604000000    -2.808000000    -1.332000000
C     3.801000000    -2.565000000     0.831000000
O     3.096000000    -3.662000000     1.090000000
C     1.724000000    -3.638000000     1.449000000
H     1.441000000    -2.651000000     1.054000000
C     0.956000000    -4.594000000     0.699000000
C    -0.391000000    -4.778000000     1.073000000
H    -0.778000000    -4.324000000     1.982000000
C     1.437000000    -5.326000000    -0.395000000
H     2.425000000    -5.057000000    -0.762000000
C     0.544000000    -6.084000000    -1.128000000
O     0.916000000    -6.548000000    -2.400000000
C    -0.760000000    -6.191000000    -0.782000000
H    -1.360000000    -6.633000000    -1.574000000
C    -1.267000000    -5.519000000     0.322000000
O    -2.583000000    -5.751000000     0.609000000
C    -3.095000000    -5.486000000     1.875000000
C    -4.006000000    -4.421000000     2.019000000
H    -4.331000000    -4.042000000     1.054000000
C    -2.612000000    -6.070000000     3.045000000
H    -1.882000000    -6.872000000     2.968000000
C    -3.182000000    -5.641000000     4.289000000
H    -3.027000000    -6.260000000     5.169000000
C    -4.131000000    -4.707000000     4.446000000
H    -4.596000000    -4.564000000     5.418000000
C    -4.590000000    -4.076000000     3.260000000
O    -5.495000000    -3.026000000     3.305000000
C    -5.156000000    -1.712000000     3.251000000
C    -5.935000000    -0.846000000     2.506000000
H    -6.898000000    -1.136000000     2.095000000
C    -5.514000000     0.473000000     2.295000000
O    -6.409000000     1.295000000     1.656000000
C    -6.190000000     2.647000000     1.570000000
C    -5.654000000     3.177000000     0.464000000
H    -5.411000000     2.528000000    -0.374000000
C    -6.673000000     3.458000000     2.611000000
H    -7.203000000     3.009000000     3.447000000
C    -6.437000000     4.846000000     2.622000000
H    -6.731000000     5.477000000     3.457000000
C    -5.814000000     5.413000000     1.509000000
H    -5.777000000     6.499000000     1.476000000
C    -5.414000000     4.609000000     0.438000000
O    -4.879000000     5.293000000    -0.688000000
C    -3.707000000     4.945000000    -1.399000000
C    -3.589000000     5.012000000    -2.779000000
H    -4.439000000     5.384000000    -3.346000000
C    -2.351000000     4.838000000    -3.351000000
O    -2.237000000     4.825000000    -4.723000000
C    -1.049000000     4.278000000    -5.397000000
C    -1.139000000     2.838000000    -5.435000000
H    -1.903000000     2.265000000    -4.918000000
C    -0.155000000     4.967000000    -6.164000000
H    -0.240000000     6.046000000    -6.065000000
C     0.812000000     4.301000000    -6.895000000
H     1.490000000     4.875000000    -7.522000000
C     0.809000000     2.882000000    -6.903000000
H     1.723000000     2.390000000    -7.228000000
C    -0.077000000     2.172000000    -6.136000000
O    -0.133000000     0.808000000    -6.189000000
C     0.816000000     0.048000000    -5.517000000
C     1.023000000    -1.231000000    -5.980000000
H     0.458000000    -1.678000000    -6.794000000
C     2.012000000    -1.995000000    -5.411000000
O     2.157000000    -3.323000000    -5.780000000
C     2.450000000    -4.379000000    -4.947000000
C     3.762000000    -4.991000000    -4.886000000
H     4.521000000    -4.553000000    -5.529000000
C     4.117000000    -6.012000000    -3.958000000
H     5.079000000    -6.516000000    -3.981000000
C     3.014000000    -6.536000000    -3.246000000
H     3.223000000    -7.393000000    -2.611000000
C     1.778000000    -5.974000000    -3.242000000
C     1.456000000    -4.915000000    -4.128000000
H     0.476000000    -4.444000000    -4.115000000
C    -2.502000000    -1.077000000    -0.860000000
H    -3.573000000    -0.895000000    -0.837000000
C    -1.586000000    -0.224000000    -0.213000000
H    -2.030000000     0.460000000     0.505000000
C    -0.179000000    -0.456000000    -0.267000000
H     0.541000000     0.223000000     0.208000000
C     0.319000000    -1.488000000    -1.115000000
H     1.396000000    -1.599000000    -1.202000000
C    -0.619000000    -2.284000000    -1.817000000
H    -0.233000000    -3.072000000    -2.459000000
C    -1.988000000    -2.075000000    -1.741000000
C    -2.989000000    -2.953000000    -2.501000000
O    -2.574000000    -3.880000000    -3.190000000
O    -4.134000000    -2.631000000    -2.584000000
O    -3.179000000    -8.100000000    -3.749000000
H    -2.507000000    -7.461000000    -3.991000000
H    -3.821000000    -7.594000000    -3.250000000
O    -8.517000000    -2.139000000    -3.214000000
H    -7.828000000    -2.802000000    -3.251000000
H    -8.259000000    -1.488000000    -3.867000000
O    -6.101000000    -3.738000000    -6.419000000
H    -5.906000000    -3.797000000    -7.354000000
H    -5.329000000    -3.317000000    -6.039000000
O    -2.552000000    -0.633000000    -5.690000000
H    -2.749000000     0.123000000    -6.242000000
H    -1.598000000    -0.629000000    -5.609000000
O    -7.028000000     0.296000000    -4.380000000
H    -6.142000000     0.080000000    -4.088000000
H    -7.077000000    -0.047000000    -5.272000000
O    -4.335000000    -6.163000000    -2.144000000
H    -3.890000000    -5.319000000    -2.068000000
H    -4.561000000    -6.398000000    -1.244000000
O    -0.281000000    -8.338000000    -5.273000000
H    -0.553000000    -8.432000000    -6.186000000
H    -0.530000000    -7.443000000    -5.040000000
O    -3.228000000    -5.303000000    -6.768000000
H    -3.722000000    -4.508000000    -6.569000000
H    -3.898000000    -5.972000000    -6.909000000
O    -3.849000000    -2.942000000    -5.511000000
H    -3.484000000    -3.371000000    -4.737000000
H    -3.357000000    -2.124000000    -5.585000000
O    -4.768000000     2.283000000    -2.787000000
H    -4.250000000     2.880000000    -3.327000000
H    -4.599000000     1.417000000    -3.158000000
O    -7.390000000    -5.336000000    -0.655000000
H    -8.100000000    -5.873000000    -1.008000000
H    -7.146000000    -4.758000000    -1.378000000
O    -6.848000000    -6.377000000    -4.470000000
H    -6.416000000    -6.598000000    -5.295000000
H    -6.607000000    -7.088000000    -3.875000000
O    -3.521000000    -8.792000000     0.495000000
H    -4.061000000    -9.549000000     0.719000000
H    -4.148000000    -8.082000000     0.357000000
O    -6.405000000    -3.994000000    -2.813000000
H    -5.581000000    -3.516000000    -2.721000000
H    -6.295000000    -4.509000000    -3.612000000
O    -2.050000000    -2.119000000    -8.727000000
H    -1.915000000    -1.437000000    -9.385000000
H    -2.873000000    -1.881000000    -8.301000000
O    -1.760000000    -5.908000000    -4.560000000
H    -2.103000000    -5.159000000    -4.072000000
H    -2.066000000    -5.771000000    -5.456000000
O    -4.494000000    -0.177000000    -3.734000000
H    -4.339000000    -0.897000000    -3.122000000
H    -3.836000000    -0.298000000    -4.418000000
O    -5.658000000    -7.184000000     0.414000000
H    -6.086000000    -6.352000000     0.212000000
H    -6.322000000    -7.847000000     0.224000000
O    -8.512000000    -4.385000000    -5.488000000
H    -8.177000000    -4.917000000    -4.766000000
H    -7.728000000    -4.040000000    -5.915000000
