215
-1478.89160
C    -4.518000000     0.111000000     2.710000000
H    -4.605000000     1.176000000     2.908000000
C    -3.430000000    -0.734000000     2.946000000
C    -3.400000000    -2.058000000     2.442000000
H    -2.525000000    -2.691000000     2.570000000
C    -2.119000000    -0.211000000     3.642000000
O    -2.343000000     1.060000000     4.319000000
H    -1.450000000    -0.242000000     2.768000000
O    -1.425000000    -1.190000000     4.485000000
C    -0.084000000    -1.376000000     4.342000000
C     0.348000000    -2.558000000     3.812000000
H    -0.303000000    -3.392000000     3.562000000
C     1.620000000    -2.701000000     3.514000000
O     2.050000000    -3.809000000     2.801000000
C     2.576000000    -1.682000000     3.736000000
C     4.073000000    -1.890000000     3.409000000
H     4.648000000    -1.271000000     4.102000000
C     4.257000000    -1.409000000     2.029000000
C     4.713000000    -0.082000000     1.859000000
H     5.027000000     0.506000000     2.717000000
H     4.521000000    -2.884000000     3.455000000
C     2.151000000    -0.551000000     4.410000000
H     2.821000000     0.274000000     4.639000000
C     0.806000000    -0.406000000     4.757000000
C     0.322000000     0.829000000     5.566000000
H     1.082000000     1.223000000     6.245000000
H    -0.482000000     0.462000000     6.207000000
C    -0.101000000     1.895000000     4.576000000
C     0.912000000     2.802000000     4.128000000
H     1.934000000     2.819000000     4.497000000
C    -1.402000000     2.061000000     4.096000000
C    -1.628000000     2.962000000     3.133000000
H    -2.563000000     2.880000000     2.584000000
C    -0.683000000     3.857000000     2.719000000
O    -1.052000000     4.748000000     1.741000000
C    -0.685000000     4.310000000     0.378000000
C    -1.874000000     4.315000000    -0.608000000
C    -1.596000000     4.574000000    -1.944000000
H    -0.592000000     4.813000000    -2.287000000
C    -3.174000000     4.182000000    -0.179000000
H    -3.397000000     4.054000000     0.877000000
O     0.446000000     5.075000000    -0.133000000
H    -0.507000000     3.226000000     0.427000000
C     0.658000000     3.762000000     3.140000000
C     1.688000000     4.679000000     2.513000000
H     2.493000000     4.894000000     3.219000000
H     1.139000000     5.616000000     2.400000000
C     2.289000000     4.192000000     1.180000000
C     3.453000000     3.402000000     1.308000000
H     3.927000000     3.230000000     2.270000000
C     1.668000000     4.363000000    -0.071000000
C     2.227000000     3.727000000    -1.177000000
H     1.676000000     3.752000000    -2.114000000
C     3.324000000     2.909000000    -1.045000000
O     3.743000000     2.302000000    -2.201000000
C     3.290000000     0.919000000    -2.269000000
C     2.771000000     0.524000000    -3.671000000
C     2.308000000     1.459000000    -4.584000000
H     2.526000000     2.512000000    -4.428000000
C     2.380000000    -0.792000000    -3.793000000
H     2.528000000    -1.540000000    -3.019000000
O     4.400000000     0.162000000    -1.829000000
H     2.436000000     0.742000000    -1.598000000
C     4.008000000     2.768000000     0.185000000
C     5.201000000     1.907000000     0.321000000
H     5.880000000     2.292000000     1.085000000
H     5.693000000     1.924000000    -0.653000000
C     4.834000000     0.455000000     0.559000000
C     4.481000000    -0.336000000    -0.549000000
C     4.226000000    -1.675000000    -0.331000000
H     4.044000000    -2.326000000    -1.182000000
C     3.984000000    -2.173000000     0.948000000
O     3.592000000    -3.475000000     1.141000000
C     2.204000000    -3.672000000     1.389000000
H     1.712000000    -2.749000000     1.049000000
C     1.718000000    -4.875000000     0.561000000
C     0.502000000    -5.555000000     0.862000000
H     0.065000000    -5.385000000     1.843000000
C     2.270000000    -5.097000000    -0.673000000
H     3.171000000    -4.571000000    -0.977000000
C     1.731000000    -6.065000000    -1.513000000
O     2.307000000    -6.384000000    -2.712000000
C     0.563000000    -6.770000000    -1.169000000
H     0.263000000    -7.661000000    -1.715000000
C    -0.038000000    -6.521000000     0.039000000
O    -1.211000000    -7.192000000     0.433000000
C    -2.122000000    -6.541000000     1.289000000
C    -2.894000000    -5.479000000     0.761000000
H    -2.857000000    -5.335000000    -0.316000000
C    -2.159000000    -6.885000000     2.674000000
H    -1.455000000    -7.588000000     3.112000000
C    -2.970000000    -6.144000000     3.485000000
H    -3.010000000    -6.250000000     4.566000000
C    -3.798000000    -5.118000000     3.021000000
H    -4.354000000    -4.470000000     3.693000000
C    -3.710000000    -4.799000000     1.633000000
O    -4.487000000    -3.740000000     1.144000000
C    -4.477000000    -2.455000000     1.627000000
C    -5.483000000    -1.634000000     1.292000000
H    -6.291000000    -1.985000000     0.655000000
C    -5.485000000    -0.383000000     1.853000000
O    -6.563000000     0.362000000     1.475000000
C    -6.572000000     1.712000000     1.416000000
C    -6.118000000     2.330000000     0.271000000
H    -5.729000000     1.855000000    -0.626000000
C    -6.909000000     2.429000000     2.583000000
H    -7.244000000     1.936000000     3.492000000
C    -6.893000000     3.826000000     2.584000000
H    -7.235000000     4.363000000     3.465000000
C    -6.421000000     4.494000000     1.444000000
H    -6.097000000     5.530000000     1.515000000
C    -6.109000000     3.735000000     0.306000000
O    -5.527000000     4.315000000    -0.781000000
C    -4.226000000     4.282000000    -1.116000000
C    -3.942000000     4.397000000    -2.491000000
H    -4.748000000     4.426000000    -3.221000000
C    -2.594000000     4.536000000    -2.956000000
O    -2.404000000     4.736000000    -4.292000000
C    -1.178000000     4.641000000    -4.979000000
C    -0.779000000     3.413000000    -5.424000000
H    -1.421000000     2.548000000    -5.278000000
C    -0.362000000     5.732000000    -5.117000000
H    -0.559000000     6.777000000    -4.894000000
C     0.862000000     5.584000000    -5.789000000
H     1.480000000     6.464000000    -5.950000000
C     1.317000000     4.334000000    -6.205000000
H     2.227000000     4.177000000    -6.779000000
C     0.435000000     3.263000000    -6.068000000
O     0.938000000     2.027000000    -6.589000000
C     1.469000000     1.122000000    -5.697000000
C     1.183000000    -0.216000000    -5.878000000
H     0.596000000    -0.529000000    -6.738000000
C     1.667000000    -1.132000000    -4.939000000
O     1.355000000    -2.461000000    -5.216000000
C     2.235000000    -3.448000000    -4.914000000
C     3.154000000    -3.827000000    -5.897000000
H     3.372000000    -3.246000000    -6.790000000
C     4.017000000    -4.934000000    -5.592000000
H     4.806000000    -5.233000000    -6.277000000
C     3.760000000    -5.699000000    -4.435000000
H     4.377000000    -6.585000000    -4.306000000
C     2.623000000    -5.460000000    -3.679000000
C     1.824000000    -4.360000000    -3.928000000
H     0.944000000    -4.166000000    -3.320000000
C    -2.861000000    -0.499000000    -0.453000000
H    -3.818000000     0.012000000    -0.522000000
C    -1.829000000     0.164000000     0.149000000
H    -1.999000000     1.114000000     0.651000000
C    -0.495000000    -0.332000000     0.072000000
H     0.397000000     0.191000000     0.402000000
C    -0.267000000    -1.534000000    -0.502000000
H     0.752000000    -1.881000000    -0.655000000
C    -1.370000000    -2.291000000    -1.074000000
H    -1.128000000    -3.146000000    -1.700000000
C    -2.682000000    -1.745000000    -1.085000000
C    -3.753000000    -2.443000000    -1.870000000
O    -3.495000000    -3.518000000    -2.445000000
O    -4.880000000    -1.957000000    -1.988000000
O    -4.778000000    -4.541000000    -5.037000000
H    -4.380000000    -4.174000000    -4.247000000
H    -4.588000000    -3.898000000    -5.720000000
O    -3.178000000    -6.415000000    -2.489000000
H    -3.885000000    -5.794000000    -2.316000000
H    -2.623000000    -5.972000000    -3.132000000
O    -3.430000000     1.062000000    -6.656000000
H    -4.066000000     0.569000000    -7.174000000
H    -2.664000000     1.139000000    -7.226000000
O    -6.889000000     2.206000000    -3.040000000
H    -6.833000000     1.272000000    -2.840000000
H    -6.351000000     2.315000000    -3.825000000
O    -7.546000000    -4.621000000     1.444000000
H    -8.417000000    -4.772000000     1.078000000
H    -7.546000000    -3.695000000     1.687000000
O    -5.983000000    -4.594000000    -1.341000000
H    -5.927000000    -4.316000000    -0.427000000
H    -5.421000000    -3.980000000    -1.813000000
O    -0.388000000    -7.216000000    -4.613000000
H    -0.488000000    -6.406000000    -4.113000000
H     0.555000000    -7.295000000    -4.756000000
O    -4.122000000    -2.313000000    -6.629000000
H    -4.325000000    -1.886000000    -5.797000000
H    -4.924000000    -2.226000000    -7.145000000
O    -4.917000000    -1.161000000    -4.495000000
H    -4.997000000    -1.655000000    -3.679000000
H    -5.690000000    -0.597000000    -4.510000000
O    -1.699000000    -1.900000000    -5.149000000
H    -1.432000000    -1.258000000    -4.491000000
H    -2.653000000    -1.926000000    -5.084000000
O    -4.951000000    -6.936000000    -6.586000000
H    -5.504000000    -7.102000000    -5.822000000
H    -4.485000000    -6.127000000    -6.374000000
O    -7.361000000    -6.657000000    -2.595000000
H    -6.945000000    -6.168000000    -1.885000000
H    -7.614000000    -7.489000000    -2.196000000
O    -8.511000000    -2.197000000    -2.241000000
H    -8.924000000    -1.821000000    -3.018000000
H    -8.173000000    -3.043000000    -2.535000000
O    -3.807000000    -8.855000000    -2.858000000
H    -3.651000000    -7.919000000    -2.737000000
H    -3.456000000    -9.047000000    -3.728000000
O    -7.672000000    -4.351000000    -3.861000000
H    -6.893000000    -4.372000000    -4.416000000
H    -7.650000000    -5.181000000    -3.385000000
O    -6.839000000    -0.163000000    -1.890000000
H    -6.032000000    -0.597000000    -1.613000000
H    -7.528000000    -0.803000000    -1.710000000
O    -3.529000000    -9.102000000    -0.014000000
H    -3.551000000    -9.159000000    -0.969000000
H    -3.417000000    -8.169000000     0.168000000
O    -1.914000000    -1.928000000    -8.172000000
H    -2.531000000    -2.322000000    -8.789000000
H    -2.333000000    -2.029000000    -7.317000000
O    -1.550000000    -4.829000000    -3.928000000
H    -2.206000000    -4.381000000    -3.394000000
H    -1.571000000    -4.372000000    -4.768000000
