215
-1412.16727
C    -4.200000000     1.238000000     2.863000000
H    -3.833000000     2.260000000     2.818000000
C    -3.324000000     0.333000000     3.475000000
C    -3.807000000    -0.979000000     3.681000000
H    -3.125000000    -1.698000000     4.126000000
C    -1.909000000     0.668000000     3.868000000
O    -1.811000000     2.052000000     4.305000000
H    -1.455000000     0.670000000     2.866000000
O    -1.251000000    -0.239000000     4.771000000
C     0.058000000    -0.581000000     4.576000000
C     0.291000000    -1.851000000     4.021000000
H    -0.580000000    -2.477000000     3.844000000
C     1.541000000    -2.263000000     3.616000000
O     1.653000000    -3.505000000     3.012000000
C     2.627000000    -1.361000000     3.740000000
C     4.032000000    -1.814000000     3.443000000
H     4.726000000    -1.225000000     4.046000000
C     4.313000000    -1.544000000     1.948000000
C     4.895000000    -0.300000000     1.563000000
H     5.275000000     0.462000000     2.239000000
H     4.267000000    -2.858000000     3.664000000
C     2.388000000    -0.084000000     4.304000000
H     3.216000000     0.619000000     4.340000000
C     1.142000000     0.273000000     4.732000000
C     0.907000000     1.689000000     5.265000000
H     1.799000000     2.016000000     5.804000000
H     0.142000000     1.705000000     6.043000000
C     0.557000000     2.713000000     4.150000000
C     1.550000000     3.405000000     3.341000000
H     2.615000000     3.188000000     3.341000000
C    -0.778000000     2.860000000     3.772000000
C    -1.069000000     3.727000000     2.697000000
H    -2.136000000     3.814000000     2.508000000
C    -0.124000000     4.405000000     1.960000000
O    -0.544000000     5.011000000     0.818000000
C    -0.341000000     4.277000000    -0.371000000
C    -1.542000000     4.371000000    -1.288000000
C    -1.503000000     3.799000000    -2.516000000
H    -0.679000000     3.145000000    -2.792000000
C    -2.706000000     5.012000000    -0.852000000
H    -2.767000000     5.400000000     0.162000000
O     0.835000000     4.641000000    -1.049000000
H    -0.283000000     3.210000000    -0.109000000
C     1.230000000     4.252000000     2.246000000
C     2.320000000     4.843000000     1.396000000
H     3.142000000     5.131000000     2.056000000
H     1.987000000     5.816000000     1.028000000
C     2.725000000     3.944000000     0.343000000
C     3.803000000     3.148000000     0.571000000
H     4.291000000     3.326000000     1.526000000
C     2.032000000     3.957000000    -0.840000000
C     2.441000000     3.163000000    -1.883000000
H     1.938000000     3.139000000    -2.846000000
C     3.598000000     2.391000000    -1.760000000
O     3.860000000     1.458000000    -2.751000000
C     3.366000000     0.130000000    -2.586000000
C     2.758000000    -0.517000000    -3.848000000
C     1.634000000     0.004000000    -4.435000000
H     1.231000000     0.923000000    -4.018000000
C     3.208000000    -1.786000000    -4.341000000
H     4.014000000    -2.288000000    -3.812000000
O     4.443000000    -0.614000000    -2.058000000
H     2.599000000     0.186000000    -1.800000000
C     4.231000000     2.332000000    -0.498000000
C     5.407000000     1.388000000    -0.249000000
H     6.046000000     1.834000000     0.516000000
H     6.179000000     1.268000000    -1.012000000
C     4.905000000     0.026000000     0.226000000
C     4.521000000    -0.910000000    -0.760000000
C     4.256000000    -2.210000000    -0.337000000
H     3.928000000    -2.965000000    -1.047000000
C     4.002000000    -2.458000000     0.981000000
O     3.281000000    -3.578000000     1.219000000
C     1.869000000    -3.394000000     1.605000000
H     1.523000000    -2.452000000     1.153000000
C     1.040000000    -4.447000000     0.927000000
C    -0.328000000    -4.531000000     1.162000000
H    -0.769000000    -4.037000000     2.024000000
C     1.523000000    -5.153000000    -0.250000000
H     2.556000000    -5.127000000    -0.587000000
C     0.587000000    -5.841000000    -1.069000000
O     0.973000000    -6.436000000    -2.241000000
C    -0.750000000    -5.896000000    -0.744000000
H    -1.461000000    -6.552000000    -1.239000000
C    -1.264000000    -5.230000000     0.370000000
O    -2.596000000    -5.380000000     0.725000000
C    -3.152000000    -5.106000000     1.939000000
C    -3.962000000    -3.964000000     2.081000000
H    -4.188000000    -3.387000000     1.188000000
C    -3.067000000    -6.026000000     2.998000000
H    -2.503000000    -6.948000000     2.882000000
C    -3.678000000    -5.744000000     4.228000000
H    -3.603000000    -6.452000000     5.049000000
C    -4.491000000    -4.542000000     4.342000000
H    -5.077000000    -4.377000000     5.243000000
C    -4.678000000    -3.707000000     3.256000000
O    -5.504000000    -2.645000000     3.387000000
C    -5.106000000    -1.345000000     3.111000000
C    -5.853000000    -0.429000000     2.385000000
H    -6.767000000    -0.758000000     1.899000000
C    -5.384000000     0.871000000     2.303000000
O    -6.162000000     1.725000000     1.570000000
C    -5.972000000     3.013000000     1.484000000
C    -5.521000000     3.502000000     0.238000000
H    -5.173000000     2.884000000    -0.586000000
C    -6.190000000     3.853000000     2.566000000
H    -6.393000000     3.419000000     3.542000000
C    -6.067000000     5.244000000     2.397000000
H    -6.265000000     5.901000000     3.240000000
C    -5.832000000     5.689000000     1.077000000
H    -5.644000000     6.749000000     0.926000000
C    -5.566000000     4.842000000     0.058000000
O    -5.056000000     5.518000000    -1.074000000
C    -3.870000000     5.014000000    -1.614000000
C    -3.811000000     4.431000000    -2.818000000
H    -4.641000000     4.356000000    -3.516000000
C    -2.652000000     3.805000000    -3.301000000
O    -2.710000000     3.424000000    -4.644000000
C    -1.587000000     3.060000000    -5.389000000
C    -1.424000000     1.715000000    -5.584000000
H    -2.215000000     0.992000000    -5.401000000
C    -0.657000000     3.993000000    -5.777000000
H    -0.827000000     5.061000000    -5.662000000
C     0.584000000     3.514000000    -6.378000000
H     1.470000000     4.128000000    -6.514000000
C     0.708000000     2.114000000    -6.585000000
H     1.667000000     1.737000000    -6.930000000
C    -0.286000000     1.208000000    -6.241000000
O     0.044000000    -0.044000000    -6.335000000
C     1.021000000    -0.666000000    -5.564000000
C     1.530000000    -1.892000000    -5.996000000
H     1.047000000    -2.424000000    -6.812000000
C     2.623000000    -2.478000000    -5.411000000
O     2.997000000    -3.788000000    -5.698000000
C     2.982000000    -4.786000000    -4.838000000
C     4.066000000    -5.637000000    -4.820000000
H     4.977000000    -5.285000000    -5.296000000
C     4.174000000    -6.676000000    -3.919000000
H     5.007000000    -7.374000000    -3.904000000
C     3.136000000    -6.974000000    -3.086000000
H     3.163000000    -7.872000000    -2.473000000
C     2.000000000    -6.122000000    -3.110000000
C     1.933000000    -4.996000000    -3.921000000
H     1.030000000    -4.390000000    -3.939000000
C    -2.419000000    -0.629000000    -0.436000000
H    -3.490000000    -0.464000000    -0.352000000
C    -1.456000000     0.240000000     0.044000000
H    -1.741000000     1.164000000     0.540000000
C    -0.092000000    -0.134000000    -0.015000000
H     0.614000000     0.656000000     0.316000000
C     0.274000000    -1.202000000    -0.763000000
H     1.313000000    -1.488000000    -0.904000000
C    -0.680000000    -1.989000000    -1.353000000
H    -0.387000000    -2.897000000    -1.874000000
C    -2.063000000    -1.720000000    -1.199000000
C    -3.072000000    -2.776000000    -1.716000000
O    -2.718000000    -3.652000000    -2.489000000
O    -4.276000000    -2.719000000    -1.518000000
O    -3.859000000    -8.269000000    -1.368000000
H    -3.672000000    -8.370000000    -0.435000000
H    -4.402000000    -7.482000000    -1.420000000
O    -5.794000000    -7.142000000     1.435000000
H    -6.594000000    -6.625000000     1.527000000
H    -5.190000000    -6.568000000     0.966000000
O    -7.705000000    -5.113000000    -4.234000000
H    -8.648000000    -4.970000000    -4.154000000
H    -7.350000000    -4.252000000    -4.453000000
O    -2.150000000    -2.285000000    -7.167000000
H    -1.927000000    -2.165000000    -6.243000000
H    -3.023000000    -2.678000000    -7.154000000
O    -3.630000000    -6.925000000    -5.365000000
H    -3.231000000    -6.176000000    -4.922000000
H    -3.268000000    -7.689000000    -4.915000000
O    -7.554000000    -5.694000000     0.029000000
H    -8.044000000    -4.910000000    -0.220000000
H    -8.193000000    -6.241000000     0.485000000
O    -0.598000000    -6.811000000    -6.377000000
H    -1.278000000    -6.349000000    -5.885000000
H    -0.737000000    -7.734000000    -6.168000000
O    -1.346000000    -2.325000000    -4.363000000
H    -1.088000000    -1.557000000    -3.854000000
H    -1.873000000    -2.847000000    -3.759000000
O    -6.272000000    -7.095000000    -3.168000000
H    -6.723000000    -6.418000000    -3.673000000
H    -5.675000000    -6.611000000    -2.598000000
O    -6.092000000    -1.176000000    -2.761000000
H    -5.563000000    -1.729000000    -2.187000000
H    -6.328000000    -0.424000000    -2.219000000
O    -6.494000000     2.277000000    -4.210000000
H    -7.108000000     2.852000000    -3.754000000
H    -6.098000000     1.750000000    -3.516000000
O    -4.902000000    -5.474000000    -1.550000000
H    -4.387000000    -4.743000000    -1.893000000
H    -5.639000000    -5.058000000    -1.103000000
O    -8.805000000    -1.690000000    -2.209000000
H    -8.783000000    -0.834000000    -1.782000000
H    -7.975000000    -1.744000000    -2.683000000
O    -7.373000000     0.711000000    -1.296000000
H    -8.124000000     1.167000000    -1.677000000
H    -7.030000000     1.321000000    -0.643000000
O    -7.014000000    -0.261000000    -5.355000000
H    -6.760000000     0.655000000    -5.464000000
H    -6.724000000    -0.487000000    -4.471000000
O    -4.511000000     1.166000000    -2.634000000
H    -3.782000000     1.764000000    -2.798000000
H    -4.167000000     0.301000000    -2.859000000
O    -1.961000000    -5.040000000    -4.589000000
H    -1.622000000    -4.259000000    -5.026000000
H    -2.362000000    -4.711000000    -3.785000000
O    -4.311000000    -3.806000000    -7.189000000
H    -3.858000000    -4.403000000    -7.784000000
H    -4.863000000    -4.376000000    -6.652000000
O    -5.990000000    -3.125000000    -4.467000000
H    -6.148000000    -2.424000000    -3.835000000
H    -5.168000000    -3.524000000    -4.182000000
