215
-1462.45732
C    -3.540000000     1.236000000     4.276000000
H    -3.226000000     2.249000000     4.514000000
C    -2.534000000     0.251000000     4.329000000
C    -2.871000000    -1.070000000     4.246000000
H    -2.061000000    -1.792000000     4.298000000
C    -1.082000000     0.588000000     4.280000000
O    -0.828000000     1.856000000     4.612000000
H    -0.718000000     0.434000000     3.254000000
O    -0.186000000    -0.261000000     5.045000000
C     1.078000000    -0.597000000     4.441000000
C     1.198000000    -1.881000000     3.896000000
H     0.359000000    -2.566000000     3.985000000
C     2.402000000    -2.192000000     3.367000000
O     2.473000000    -3.441000000     2.737000000
C     3.456000000    -1.310000000     3.315000000
C     4.669000000    -1.733000000     2.522000000
H     5.526000000    -1.143000000     2.853000000
C     4.505000000    -1.471000000     1.016000000
C     4.831000000    -0.273000000     0.441000000
H     5.191000000     0.517000000     1.095000000
H     5.018000000    -2.725000000     2.814000000
C     3.363000000    -0.019000000     3.842000000
H     4.193000000     0.682000000     3.804000000
C     2.113000000     0.303000000     4.439000000
C     2.034000000     1.724000000     5.073000000
H     3.008000000     2.136000000     5.345000000
H     1.326000000     1.800000000     5.901000000
C     1.383000000     2.640000000     3.971000000
C     2.128000000     3.474000000     3.023000000
H     3.210000000     3.518000000     3.109000000
C     0.010000000     2.528000000     3.766000000
C    -0.611000000     3.313000000     2.785000000
H    -1.695000000     3.253000000     2.735000000
C     0.123000000     4.018000000     1.883000000
O    -0.535000000     4.741000000     0.897000000
C    -0.577000000     4.067000000    -0.425000000
C    -1.900000000     3.843000000    -1.107000000
C    -2.022000000     3.349000000    -2.406000000
H    -1.147000000     3.049000000    -2.976000000
C    -2.996000000     4.112000000    -0.307000000
H    -2.817000000     4.335000000     0.742000000
O     0.468000000     4.682000000    -1.242000000
H    -0.324000000     3.009000000    -0.260000000
C     1.503000000     4.211000000     2.027000000
C     2.415000000     4.917000000     0.980000000
H     3.405000000     5.163000000     1.370000000
H     1.960000000     5.850000000     0.641000000
C     2.567000000     3.958000000    -0.209000000
C     3.772000000     3.215000000    -0.310000000
H     4.556000000     3.307000000     0.437000000
C     1.647000000     4.000000000    -1.295000000
C     1.807000000     3.205000000    -2.419000000
H     1.113000000     3.257000000    -3.253000000
C     2.830000000     2.333000000    -2.429000000
O     2.991000000     1.396000000    -3.417000000
C     2.593000000     0.039000000    -3.194000000
C     1.856000000    -0.428000000    -4.529000000
C     1.111000000     0.516000000    -5.381000000
H     1.019000000     1.577000000    -5.160000000
C     1.706000000    -1.807000000    -4.770000000
H     2.145000000    -2.529000000    -4.086000000
O     3.788000000    -0.753000000    -3.005000000
H     1.955000000     0.085000000    -2.299000000
C     3.871000000     2.392000000    -1.435000000
C     5.023000000     1.414000000    -1.434000000
H     5.829000000     1.868000000    -0.853000000
H     5.443000000     1.393000000    -2.442000000
C     4.636000000     0.032000000    -0.894000000
C     4.179000000    -1.001000000    -1.725000000
C     3.917000000    -2.267000000    -1.189000000
H     3.643000000    -3.094000000    -1.839000000
C     4.120000000    -2.526000000     0.173000000
O     3.646000000    -3.669000000     0.690000000
C     2.333000000    -3.515000000     1.286000000
H     1.899000000    -2.575000000     0.913000000
C     1.458000000    -4.628000000     0.845000000
C     0.374000000    -4.987000000     1.610000000
H     0.184000000    -4.573000000     2.597000000
C     1.576000000    -5.125000000    -0.452000000
H     2.454000000    -4.904000000    -1.053000000
C     0.678000000    -6.045000000    -0.963000000
O     0.857000000    -6.611000000    -2.199000000
C    -0.379000000    -6.456000000    -0.192000000
H    -1.113000000    -7.143000000    -0.606000000
C    -0.483000000    -5.964000000     1.106000000
O    -1.593000000    -6.284000000     1.842000000
C    -2.115000000    -5.527000000     2.895000000
C    -3.097000000    -4.520000000     2.699000000
H    -3.369000000    -4.292000000     1.672000000
C    -1.589000000    -5.660000000     4.158000000
H    -0.784000000    -6.345000000     4.413000000
C    -2.140000000    -4.930000000     5.219000000
H    -1.843000000    -5.203000000     6.229000000
C    -3.132000000    -4.031000000     5.079000000
H    -3.463000000    -3.459000000     5.942000000
C    -3.618000000    -3.749000000     3.824000000
O    -4.536000000    -2.768000000     3.615000000
C    -4.183000000    -1.430000000     3.849000000
C    -5.217000000    -0.465000000     3.713000000
H    -6.247000000    -0.813000000     3.696000000
C    -4.892000000     0.858000000     4.082000000
O    -5.870000000     1.801000000     4.006000000
C    -5.751000000     3.000000000     3.366000000
C    -5.559000000     2.941000000     1.965000000
H    -5.597000000     2.035000000     1.365000000
C    -5.724000000     4.190000000     4.022000000
H    -5.802000000     4.201000000     5.106000000
C    -5.502000000     5.398000000     3.362000000
H    -5.434000000     6.361000000     3.862000000
C    -5.331000000     5.355000000     1.993000000
H    -5.246000000     6.259000000     1.396000000
C    -5.412000000     4.161000000     1.308000000
O    -5.404000000     4.141000000    -0.063000000
C    -4.298000000     3.884000000    -0.851000000
C    -4.395000000     3.437000000    -2.134000000
H    -5.412000000     3.410000000    -2.517000000
C    -3.290000000     3.134000000    -2.881000000
O    -3.507000000     2.599000000    -4.096000000
C    -2.735000000     2.794000000    -5.180000000
C    -2.006000000     1.671000000    -5.687000000
H    -2.125000000     0.658000000    -5.310000000
C    -2.492000000     4.090000000    -5.637000000
H    -3.011000000     4.987000000    -5.309000000
C    -1.645000000     4.219000000    -6.752000000
H    -1.621000000     5.189000000    -7.244000000
C    -1.044000000     3.114000000    -7.358000000
H    -0.460000000     3.294000000    -8.257000000
C    -1.107000000     1.875000000    -6.775000000
O    -0.411000000     0.817000000    -7.290000000
C     0.398000000    -0.015000000    -6.469000000
C     0.300000000    -1.396000000    -6.731000000
H    -0.275000000    -1.827000000    -7.547000000
C     0.931000000    -2.301000000    -5.852000000
O     0.726000000    -3.648000000    -6.018000000
C     1.310000000    -4.561000000    -5.233000000
C     2.676000000    -4.822000000    -5.521000000
H     3.181000000    -4.255000000    -6.300000000
C     3.366000000    -5.632000000    -4.664000000
H     4.439000000    -5.734000000    -4.802000000
C     2.736000000    -6.187000000    -3.506000000
H     3.289000000    -6.850000000    -2.845000000
C     1.405000000    -5.987000000    -3.299000000
C     0.641000000    -5.103000000    -4.146000000
H    -0.423000000    -4.910000000    -4.040000000
C    -2.676000000     0.161000000     0.393000000
H    -3.331000000     0.986000000     0.662000000
C    -1.299000000     0.475000000     0.552000000
H    -1.008000000     1.435000000     0.971000000
C    -0.345000000    -0.449000000     0.156000000
H     0.681000000    -0.099000000     0.237000000
C    -0.720000000    -1.709000000    -0.371000000
H    -0.028000000    -2.478000000    -0.705000000
C    -2.080000000    -2.023000000    -0.445000000
H    -2.380000000    -3.061000000    -0.572000000
C    -3.043000000    -1.047000000    -0.162000000
C    -4.507000000    -1.334000000    -0.277000000
O    -4.981000000    -2.431000000    -0.471000000
O    -5.210000000    -0.358000000    -0.509000000
O    -9.967000000    -0.053000000     2.482000000
H    -9.821000000     0.356000000     3.335000000
H    -9.125000000     0.023000000     2.032000000
O    -8.424000000     1.855000000    -2.149000000
H    -9.259000000     1.778000000    -2.611000000
H    -8.006000000     1.002000000    -2.267000000
O    -4.769000000    -3.858000000    -2.829000000
H    -4.219000000    -3.262000000    -3.337000000
H    -4.896000000    -3.412000000    -1.992000000
O    -7.864000000     0.644000000     0.886000000
H    -7.035000000     0.337000000     0.518000000
H    -7.897000000     1.573000000     0.660000000
O    -4.453000000    -6.886000000    -0.240000000
H    -4.801000000    -6.027000000    -0.001000000
H    -5.217000000    -7.380000000    -0.536000000
O    -7.991000000    -6.483000000    -1.105000000
H    -8.723000000    -6.773000000    -1.650000000
H    -7.330000000    -7.167000000    -1.208000000
O    -8.732000000    -2.242000000    -3.185000000
H    -9.083000000    -2.376000000    -2.304000000
H    -7.974000000    -1.671000000    -3.057000000
O    -2.495000000    -5.234000000    -2.300000000
H    -2.600000000    -6.005000000    -1.742000000
H    -3.368000000    -4.842000000    -2.333000000
O    -4.540000000    -0.465000000    -6.827000000
H    -4.262000000    -0.811000000    -5.979000000
H    -5.005000000    -1.192000000    -7.242000000
O    -7.330000000    -4.462000000     3.181000000
H    -7.505000000    -3.535000000     3.344000000
H    -6.783000000    -4.469000000     2.396000000
O    -1.034000000    -0.744000000    -3.114000000
H    -0.332000000    -1.312000000    -2.796000000
H    -1.418000000    -0.371000000    -2.320000000
O    -6.400000000     1.245000000    -4.987000000
H    -5.772000000     0.953000000    -5.648000000
H    -6.435000000     2.196000000    -5.093000000
O    -6.017000000    -4.694000000     0.521000000
H    -6.687000000    -4.769000000    -0.158000000
H    -5.574000000    -3.867000000     0.330000000
O    -9.001000000    -4.438000000     0.479000000
H    -8.765000000    -3.551000000     0.209000000
H    -8.620000000    -5.003000000    -0.193000000
O    -6.874000000    -0.370000000    -2.634000000
H    -6.254000000    -0.495000000    -1.916000000
H    -6.431000000     0.234000000    -3.230000000
O    -3.275000000    -2.075000000    -4.430000000
H    -3.052000000    -2.601000000    -5.198000000
H    -2.440000000    -1.709000000    -4.140000000
O    -7.377000000    -4.382000000    -4.162000000
H    -6.434000000    -4.216000000    -4.153000000
H    -7.758000000    -3.627000000    -3.714000000
O    -3.841000000    -5.892000000    -4.865000000
H    -3.495000000    -5.644000000    -4.008000000
H    -3.096000000    -5.804000000    -5.459000000
O    -7.699000000    -2.138000000    -0.437000000
H    -7.986000000    -1.313000000    -0.046000000
H    -6.744000000    -2.116000000    -0.371000000
