215
-1435.74384
C    -2.867000000     0.770000000     4.187000000
H    -2.659000000     1.788000000     4.505000000
C    -1.903000000    -0.148000000     4.090000000
C    -2.217000000    -1.459000000     3.725000000
H    -1.357000000    -2.117000000     3.631000000
C    -0.520000000     0.331000000     4.063000000
O    -0.355000000     1.765000000     4.429000000
H    -0.172000000     0.258000000     3.021000000
O     0.311000000    -0.385000000     4.845000000
C     1.384000000    -1.003000000     4.294000000
C     1.248000000    -2.291000000     3.777000000
H     0.369000000    -2.899000000     3.976000000
C     2.369000000    -2.791000000     3.023000000
O     2.147000000    -4.041000000     2.389000000
C     3.561000000    -2.068000000     2.871000000
C     4.656000000    -2.596000000     1.984000000
H     5.620000000    -2.173000000     2.274000000
C     4.443000000    -2.148000000     0.554000000
C     4.864000000    -0.913000000     0.117000000
H     5.508000000    -0.354000000     0.790000000
H     4.677000000    -3.670000000     2.179000000
C     3.664000000    -0.774000000     3.450000000
H     4.589000000    -0.216000000     3.326000000
C     2.596000000    -0.252000000     4.147000000
C     2.723000000     1.193000000     4.662000000
H     3.761000000     1.527000000     4.620000000
H     2.340000000     1.277000000     5.681000000
C     1.973000000     2.292000000     3.766000000
C     2.779000000     3.158000000     3.027000000
H     3.853000000     3.065000000     3.166000000
C     0.601000000     2.507000000     3.768000000
C     0.095000000     3.426000000     2.926000000
H    -0.982000000     3.377000000     2.785000000
C     0.851000000     4.206000000     2.073000000
O     0.201000000     4.935000000     1.013000000
C     0.051000000     4.417000000    -0.280000000
C    -1.318000000     4.728000000    -0.833000000
C    -1.526000000     4.936000000    -2.238000000
H    -0.664000000     4.947000000    -2.900000000
C    -2.387000000     4.682000000     0.040000000
H    -2.184000000     4.404000000     1.071000000
O     1.091000000     4.987000000    -1.077000000
H     0.253000000     3.338000000    -0.203000000
C     2.224000000     3.982000000     2.088000000
C     3.078000000     4.628000000     1.030000000
H     4.076000000     4.917000000     1.367000000
H     2.738000000     5.600000000     0.669000000
C     3.085000000     3.751000000    -0.205000000
C     4.014000000     2.687000000    -0.363000000
H     4.769000000     2.492000000     0.394000000
C     2.139000000     4.067000000    -1.220000000
C     2.130000000     3.206000000    -2.351000000
H     1.390000000     3.363000000    -3.132000000
C     3.055000000     2.210000000    -2.515000000
O     2.882000000     1.443000000    -3.639000000
C     2.202000000     0.196000000    -3.398000000
C     1.208000000    -0.122000000    -4.432000000
C     0.506000000     0.875000000    -5.074000000
H     0.627000000     1.915000000    -4.784000000
C     0.939000000    -1.483000000    -4.737000000
H     1.435000000    -2.259000000    -4.159000000
O     3.254000000    -0.790000000    -3.237000000
H     1.628000000     0.165000000    -2.461000000
C     4.029000000     1.923000000    -1.503000000
C     5.031000000     0.815000000    -1.687000000
H     5.964000000     1.060000000    -1.176000000
H     5.256000000     0.731000000    -2.752000000
C     4.482000000    -0.475000000    -1.160000000
C     3.638000000    -1.202000000    -1.970000000
C     3.321000000    -2.482000000    -1.545000000
H     2.807000000    -3.087000000    -2.288000000
C     3.615000000    -2.956000000    -0.260000000
O     2.997000000    -4.083000000     0.111000000
C     1.853000000    -3.933000000     0.959000000
H     1.486000000    -2.946000000     0.639000000
C     0.762000000    -5.017000000     0.658000000
C    -0.009000000    -5.689000000     1.605000000
H     0.105000000    -5.427000000     2.654000000
C     0.362000000    -5.221000000    -0.665000000
H     1.007000000    -4.680000000    -1.352000000
C    -0.686000000    -6.003000000    -1.037000000
O    -1.096000000    -6.095000000    -2.328000000
C    -1.369000000    -6.767000000    -0.075000000
H    -2.296000000    -7.282000000    -0.314000000
C    -1.065000000    -6.572000000     1.292000000
O    -1.802000000    -6.987000000     2.412000000
C    -2.188000000    -6.051000000     3.366000000
C    -2.825000000    -4.860000000     2.869000000
H    -2.772000000    -4.678000000     1.799000000
C    -2.244000000    -6.395000000     4.707000000
H    -1.752000000    -7.274000000     5.114000000
C    -2.853000000    -5.512000000     5.597000000
H    -2.896000000    -5.594000000     6.680000000
C    -3.495000000    -4.377000000     5.082000000
H    -4.044000000    -3.749000000     5.779000000
C    -3.368000000    -4.038000000     3.744000000
O    -4.037000000    -2.959000000     3.132000000
C    -3.586000000    -1.727000000     3.436000000
C    -4.548000000    -0.767000000     3.609000000
H    -5.559000000    -1.033000000     3.312000000
C    -4.161000000     0.505000000     3.887000000
O    -5.085000000     1.509000000     4.020000000
C    -4.883000000     2.806000000     3.563000000
C    -4.777000000     3.045000000     2.201000000
H    -4.889000000     2.241000000     1.479000000
C    -4.633000000     3.880000000     4.447000000
H    -4.356000000     3.698000000     5.482000000
C    -4.402000000     5.161000000     3.905000000
H    -4.142000000     5.934000000     4.623000000
C    -4.564000000     5.454000000     2.594000000
H    -4.356000000     6.475000000     2.282000000
C    -4.676000000     4.358000000     1.721000000
O    -4.832000000     4.746000000     0.405000000
C    -3.738000000     4.794000000    -0.418000000
C    -3.924000000     4.975000000    -1.827000000
H    -4.934000000     4.968000000    -2.228000000
C    -2.853000000     5.020000000    -2.694000000
O    -3.183000000     5.254000000    -4.001000000
C    -2.352000000     4.771000000    -4.994000000
C    -2.330000000     3.353000000    -5.268000000
H    -2.820000000     2.627000000    -4.625000000
C    -1.610000000     5.675000000    -5.722000000
H    -1.705000000     6.740000000    -5.531000000
C    -0.845000000     5.082000000    -6.799000000
H    -0.285000000     5.737000000    -7.462000000
C    -0.766000000     3.767000000    -7.038000000
H    -0.155000000     3.390000000    -7.854000000
C    -1.516000000     2.861000000    -6.294000000
O    -1.339000000     1.519000000    -6.543000000
C    -0.485000000     0.534000000    -6.002000000
C    -0.704000000    -0.769000000    -6.318000000
H    -1.462000000    -1.120000000    -7.014000000
C    -0.040000000    -1.797000000    -5.706000000
O    -0.440000000    -3.094000000    -6.005000000
C    -0.069000000    -4.190000000    -5.277000000
C     1.184000000    -4.833000000    -5.542000000
H     1.768000000    -4.654000000    -6.441000000
C     1.582000000    -5.859000000    -4.734000000
H     2.491000000    -6.359000000    -5.059000000
C     0.855000000    -6.273000000    -3.665000000
H     1.301000000    -7.036000000    -3.033000000
C    -0.400000000    -5.754000000    -3.436000000
C    -0.819000000    -4.583000000    -4.189000000
H    -1.652000000    -3.970000000    -3.854000000
C    -2.761000000    -0.398000000     0.503000000
H    -3.653000000    -0.112000000     1.055000000
C    -1.539000000     0.267000000     0.604000000
H    -1.407000000     1.223000000     1.106000000
C    -0.428000000    -0.278000000    -0.039000000
H     0.534000000     0.319000000    -0.014000000
C    -0.582000000    -1.425000000    -0.774000000
H     0.308000000    -1.725000000    -1.321000000
C    -1.732000000    -2.214000000    -0.744000000
H    -1.780000000    -3.179000000    -1.243000000
C    -2.877000000    -1.670000000    -0.146000000
C    -4.167000000    -2.374000000    -0.196000000
O    -4.180000000    -3.378000000    -0.861000000
O    -5.157000000    -1.883000000     0.272000000
O    -6.582000000    -3.681000000    -2.101000000
H    -6.820000000    -2.756000000    -2.039000000
H    -5.733000000    -3.740000000    -1.663000000
O    -4.971000000    -7.486000000     2.380000000
H    -4.103000000    -7.245000000     2.702000000
H    -5.541000000    -7.405000000     3.144000000
O    -7.039000000    -6.361000000    -2.015000000
H    -7.099000000    -5.416000000    -2.150000000
H    -6.354000000    -6.466000000    -1.355000000
O    -9.302000000    -3.796000000    -0.126000000
H    -8.458000000    -3.467000000     0.182000000
H    -9.942000000    -3.171000000     0.215000000
O    -8.319000000    -1.323000000    -1.864000000
H    -9.019000000    -0.769000000    -1.519000000
H    -8.680000000    -2.209000000    -1.836000000
O    -5.571000000    -3.896000000    -5.729000000
H    -5.957000000    -4.766000000    -5.630000000
H    -5.254000000    -3.674000000    -4.853000000
O    -8.836000000     1.149000000     2.004000000
H    -9.016000000     2.066000000     1.797000000
H    -8.199000000     0.876000000     1.344000000
O    -6.941000000     0.084000000     0.156000000
H    -6.193000000    -0.462000000     0.394000000
H    -7.425000000    -0.438000000    -0.484000000
O    -3.646000000    -6.401000000    -3.667000000
H    -3.872000000    -5.471000000    -3.704000000
H    -2.747000000    -6.416000000    -3.341000000
O    -7.013000000    -3.138000000     1.312000000
H    -6.329000000    -2.651000000     0.851000000
H    -7.477000000    -2.473000000     1.821000000
O    -5.002000000    -5.770000000    -0.031000000
H    -4.719000000    -4.861000000    -0.127000000
H    -5.442000000    -5.796000000     0.819000000
O    -8.297000000     0.091000000    -4.809000000
H    -7.948000000    -0.583000000    -5.393000000
H    -8.218000000    -0.286000000    -3.933000000
O    -8.636000000    -1.543000000     2.678000000
H    -8.766000000    -0.654000000     2.349000000
H    -9.508000000    -1.937000000     2.654000000
O    -6.914000000     1.746000000    -3.113000000
H    -7.439000000     1.313000000    -3.786000000
H    -6.013000000     1.491000000    -3.310000000
O    -7.701000000    -5.776000000     1.612000000
H    -7.524000000    -4.839000000     1.528000000
H    -8.325000000    -5.966000000     0.912000000
O    -3.297000000    -0.547000000    -4.232000000
H    -3.975000000     0.126000000    -4.287000000
H    -2.641000000    -0.180000000    -3.640000000
O    -3.840000000    -3.258000000    -3.430000000
H    -3.877000000    -3.101000000    -2.487000000
H    -3.748000000    -2.386000000    -3.814000000
O    -3.900000000    -1.673000000    -6.739000000
H    -3.527000000    -1.354000000    -5.917000000
H    -4.515000000    -2.357000000    -6.473000000
O    -6.664000000     2.729000000    -0.732000000
H    -6.819000000     2.384000000    -1.612000000
H    -6.702000000     1.959000000    -0.164000000
