215
-1476.38812
C    -2.017000000    -1.867000000    -3.806000000
H    -2.011000000    -0.808000000    -4.055000000
C    -2.569000000    -2.402000000    -2.617000000
C    -2.281000000    -3.765000000    -2.375000000
H    -2.697000000    -4.201000000    -1.470000000
C    -3.367000000    -1.522000000    -1.722000000
O    -4.165000000    -0.586000000    -2.435000000
H    -2.766000000    -0.973000000    -0.982000000
O    -4.175000000    -2.439000000    -0.900000000
C    -4.149000000    -2.171000000     0.459000000
C    -3.350000000    -3.038000000     1.175000000
H    -2.893000000    -3.895000000     0.688000000
C    -3.003000000    -2.651000000     2.461000000
O    -1.999000000    -3.374000000     3.081000000
C    -3.567000000    -1.501000000     3.068000000
C    -3.063000000    -0.959000000     4.387000000
H    -3.775000000    -0.285000000     4.869000000
C    -1.825000000    -0.069000000     4.217000000
C    -1.900000000     1.319000000     4.260000000
H    -2.867000000     1.788000000     4.426000000
H    -2.828000000    -1.766000000     5.084000000
C    -4.390000000    -0.698000000     2.281000000
H    -4.760000000     0.237000000     2.693000000
C    -4.805000000    -1.059000000     1.032000000
C    -5.584000000     0.028000000     0.217000000
H    -6.361000000     0.522000000     0.804000000
H    -6.169000000    -0.502000000    -0.538000000
C    -4.649000000     0.975000000    -0.519000000
C    -4.393000000     2.253000000     0.009000000
H    -4.479000000     2.484000000     1.068000000
C    -4.201000000     0.674000000    -1.857000000
C    -3.566000000     1.641000000    -2.618000000
H    -3.125000000     1.473000000    -3.597000000
C    -3.114000000     2.757000000    -1.975000000
O    -2.238000000     3.498000000    -2.654000000
C    -0.886000000     3.562000000    -2.238000000
C     0.161000000     3.456000000    -3.305000000
C     1.527000000     3.418000000    -2.994000000
H     1.800000000     3.725000000    -1.988000000
C    -0.191000000     3.043000000    -4.520000000
H    -1.250000000     2.966000000    -4.753000000
O    -0.781000000     4.722000000    -1.371000000
H    -0.715000000     2.607000000    -1.720000000
C    -3.583000000     3.126000000    -0.679000000
C    -3.258000000     4.432000000    -0.070000000
H    -4.078000000     4.654000000     0.617000000
H    -3.299000000     5.317000000    -0.708000000
C    -1.980000000     4.348000000     0.720000000
C    -1.988000000     4.116000000     2.107000000
H    -2.948000000     4.009000000     2.604000000
C    -0.752000000     4.533000000     0.029000000
C     0.436000000     4.530000000     0.768000000
H     1.372000000     4.733000000     0.255000000
C     0.441000000     4.171000000     2.141000000
O     1.706000000     4.034000000     2.698000000
C     2.095000000     2.663000000     2.895000000
C     3.596000000     2.472000000     2.648000000
C     4.346000000     3.406000000     1.951000000
H     3.966000000     4.350000000     1.569000000
C     4.178000000     1.219000000     2.997000000
H     3.594000000     0.445000000     3.489000000
O     1.719000000     2.194000000     4.181000000
H     1.621000000     2.092000000     2.083000000
C    -0.779000000     4.066000000     2.834000000
C    -0.762000000     3.621000000     4.258000000
H    -1.726000000     3.875000000     4.703000000
H     0.068000000     4.038000000     4.831000000
C    -0.709000000     2.132000000     4.289000000
C     0.554000000     1.482000000     4.207000000
C     0.623000000     0.129000000     4.122000000
H     1.617000000    -0.264000000     3.925000000
C    -0.551000000    -0.648000000     4.106000000
O    -0.353000000    -1.982000000     4.109000000
C    -0.687000000    -2.748000000     2.976000000
H    -0.765000000    -2.065000000     2.118000000
C     0.381000000    -3.801000000     2.625000000
C     0.011000000    -4.964000000     1.946000000
H    -0.993000000    -5.161000000     1.578000000
C     1.703000000    -3.532000000     2.983000000
H     1.918000000    -2.744000000     3.701000000
C     2.667000000    -4.552000000     2.758000000
O     3.922000000    -4.471000000     3.360000000
C     2.320000000    -5.736000000     2.022000000
H     3.105000000    -6.484000000     1.954000000
C     0.979000000    -5.895000000     1.635000000
O     0.668000000    -6.938000000     0.825000000
C    -0.538000000    -7.050000000     0.087000000
C    -0.598000000    -6.386000000    -1.114000000
H     0.314000000    -5.922000000    -1.482000000
C    -1.610000000    -7.838000000     0.512000000
H    -1.553000000    -8.353000000     1.467000000
C    -2.739000000    -7.986000000    -0.313000000
H    -3.600000000    -8.554000000     0.030000000
C    -2.820000000    -7.349000000    -1.588000000
H    -3.711000000    -7.418000000    -2.206000000
C    -1.707000000    -6.546000000    -1.960000000
O    -1.636000000    -5.924000000    -3.166000000
C    -1.589000000    -4.566000000    -3.313000000
C    -1.137000000    -4.011000000    -4.489000000
H    -0.815000000    -4.597000000    -5.346000000
C    -1.297000000    -2.639000000    -4.731000000
O    -1.070000000    -2.162000000    -6.014000000
C    -1.359000000    -0.941000000    -6.503000000
C    -0.375000000     0.105000000    -6.473000000
H     0.573000000    -0.149000000    -6.006000000
C    -2.504000000    -0.740000000    -7.207000000
H    -3.162000000    -1.604000000    -7.262000000
C    -2.783000000     0.544000000    -7.640000000
H    -3.701000000     0.697000000    -8.202000000
C    -1.889000000     1.637000000    -7.545000000
H    -2.248000000     2.564000000    -7.985000000
C    -0.683000000     1.399000000    -6.878000000
O     0.342000000     2.353000000    -6.705000000
C     0.768000000     2.796000000    -5.499000000
C     2.106000000     2.891000000    -5.231000000
H     2.788000000     2.614000000    -6.031000000
C     2.508000000     3.215000000    -3.928000000
O     3.875000000     3.227000000    -3.527000000
C     4.356000000     4.041000000    -2.541000000
C     4.968000000     3.547000000    -1.425000000
H     4.917000000     2.485000000    -1.199000000
C     4.245000000     5.443000000    -2.665000000
H     3.667000000     5.898000000    -3.466000000
C     4.847000000     6.297000000    -1.771000000
H     4.738000000     7.375000000    -1.860000000
C     5.563000000     5.776000000    -0.714000000
H     6.110000000     6.435000000    -0.045000000
C     5.662000000     4.397000000    -0.582000000
O     6.291000000     3.957000000     0.663000000
C     5.617000000     3.124000000     1.547000000
C     6.215000000     1.870000000     1.878000000
H     7.211000000     1.666000000     1.495000000
C     5.510000000     0.931000000     2.645000000
O     6.143000000    -0.312000000     2.926000000
C     5.612000000    -1.254000000     3.730000000
C     5.446000000    -0.985000000     5.074000000
H     5.845000000    -0.083000000     5.530000000
C     4.611000000    -1.859000000     5.900000000
H     4.492000000    -1.544000000     6.934000000
C     4.170000000    -3.025000000     5.358000000
H     3.648000000    -3.773000000     5.949000000
C     4.385000000    -3.350000000     4.011000000
C     5.138000000    -2.449000000     3.234000000
H     5.467000000    -2.698000000     2.228000000
C     2.888000000    -1.052000000    -0.428000000
H     3.950000000    -0.876000000    -0.576000000
C     2.029000000    -0.112000000     0.109000000
H     2.484000000     0.869000000     0.214000000
C     0.634000000    -0.327000000     0.224000000
H    -0.085000000     0.466000000     0.493000000
C     0.164000000    -1.565000000    -0.172000000
H    -0.877000000    -1.868000000    -0.240000000
C     1.049000000    -2.590000000    -0.565000000
H     0.679000000    -3.565000000    -0.870000000
C     2.405000000    -2.360000000    -0.598000000
C     3.290000000    -3.463000000    -1.007000000
O     2.918000000    -4.589000000    -1.283000000
O     4.473000000    -3.188000000    -1.222000000
O     4.474000000    -1.573000000    -5.529000000
H     5.202000000    -1.338000000    -6.103000000
H     4.464000000    -0.887000000    -4.862000000
O     7.965000000    -4.838000000    -1.972000000
H     7.646000000    -5.438000000    -2.647000000
H     7.187000000    -4.620000000    -1.458000000
O     6.135000000    -6.918000000    -5.864000000
H     5.620000000    -6.168000000    -5.566000000
H     6.609000000    -7.208000000    -5.084000000
O     0.554000000    -7.942000000    -4.422000000
H     0.871000000    -7.041000000    -4.356000000
H     0.920000000    -8.382000000    -3.655000000
O     5.981000000    -8.633000000    -1.631000000
H     5.292000000    -8.078000000    -1.266000000
H     6.603000000    -8.747000000    -0.912000000
O     4.218000000    -6.790000000    -0.726000000
H     3.746000000    -5.990000000    -0.957000000
H     4.577000000    -6.614000000     0.144000000
O     1.698000000    -1.265000000    -4.085000000
H     2.576000000    -0.884000000    -4.105000000
H     1.494000000    -1.347000000    -3.153000000
O     3.612000000    -7.219000000    -3.731000000
H     3.561000000    -7.540000000    -2.831000000
H     2.842000000    -6.661000000    -3.831000000
O     2.528000000    -3.540000000    -5.348000000
H     2.128000000    -2.686000000    -5.182000000
H     3.467000000    -3.358000000    -5.400000000
O     7.432000000    -0.193000000    -4.093000000
H     6.954000000    -0.901000000    -3.661000000
H     7.308000000     0.564000000    -3.521000000
O     5.213000000    -4.248000000    -5.974000000
H     5.163000000    -4.454000000    -5.040000000
H     5.180000000    -3.292000000    -6.011000000
O     4.336000000     0.083000000    -3.167000000
H     4.845000000    -0.612000000    -2.749000000
H     4.765000000     0.893000000    -2.892000000
O     5.533000000    -6.033000000     1.534000000
H     6.083000000    -6.736000000     1.880000000
H     5.100000000    -5.666000000     2.305000000
O     7.491000000    -7.435000000    -3.745000000
H     8.199000000    -8.067000000    -3.619000000
H     6.764000000    -7.782000000    -3.229000000
O     2.146000000    -8.587000000    -1.047000000
H     2.907000000    -8.022000000    -0.916000000
H     1.577000000    -8.400000000    -0.300000000
O     5.196000000    -4.850000000    -3.418000000
H     4.650000000    -5.629000000    -3.310000000
H     4.942000000    -4.277000000    -2.695000000
O     1.731000000    -5.291000000    -3.437000000
H     1.780000000    -4.568000000    -4.063000000
H     2.040000000    -4.916000000    -2.613000000
O     6.546000000    -3.685000000     0.453000000
H     5.871000000    -3.512000000    -0.203000000
H     6.272000000    -4.504000000     0.867000000
O     6.205000000    -1.445000000    -1.985000000
H     5.658000000    -2.118000000    -1.580000000
H     6.921000000    -1.313000000    -1.364000000
