215
-1439.03091
C    -3.547000000     0.526000000     4.028000000
H    -3.641000000     1.536000000     3.639000000
C    -2.308000000     0.026000000     4.293000000
C    -2.170000000    -1.334000000     4.603000000
H    -1.171000000    -1.670000000     4.868000000
C    -1.202000000     1.018000000     4.000000000
O    -1.479000000     2.390000000     4.166000000
H    -0.844000000     0.830000000     2.977000000
O    -0.212000000     0.713000000     4.892000000
C     1.056000000     0.575000000     4.477000000
C     1.553000000    -0.652000000     4.164000000
H     0.929000000    -1.527000000     4.328000000
C     2.757000000    -0.744000000     3.552000000
O     3.196000000    -1.994000000     3.156000000
C     3.560000000     0.436000000     3.251000000
C     4.841000000     0.355000000     2.546000000
H     5.463000000     1.226000000     2.763000000
C     4.736000000     0.268000000     1.035000000
C     4.757000000     1.469000000     0.234000000
H     4.841000000     2.457000000     0.681000000
H     5.416000000    -0.545000000     2.772000000
C     3.091000000     1.711000000     3.739000000
H     3.782000000     2.538000000     3.595000000
C     1.819000000     1.757000000     4.270000000
C     1.250000000     3.199000000     4.537000000
H     2.148000000     3.789000000     4.733000000
H     0.678000000     3.290000000     5.463000000
C     0.414000000     3.613000000     3.371000000
C     0.996000000     4.316000000     2.332000000
H     2.027000000     4.658000000     2.373000000
C    -0.951000000     3.261000000     3.272000000
C    -1.674000000     3.675000000     2.212000000
H    -2.720000000     3.394000000     2.119000000
C    -1.151000000     4.418000000     1.233000000
O    -1.919000000     4.574000000     0.137000000
C    -1.677000000     3.801000000    -1.050000000
C    -2.961000000     3.313000000    -1.626000000
C    -3.153000000     3.294000000    -3.023000000
H    -2.390000000     3.729000000    -3.664000000
C    -4.021000000     2.905000000    -0.830000000
H    -3.984000000     2.979000000     0.254000000
O    -0.832000000     4.516000000    -1.938000000
H    -1.193000000     2.881000000    -0.690000000
C     0.182000000     4.736000000     1.239000000
C     0.860000000     5.467000000     0.088000000
H     1.725000000     5.987000000     0.504000000
H     0.170000000     6.131000000    -0.437000000
C     1.364000000     4.527000000    -0.948000000
C     2.614000000     3.923000000    -0.965000000
H     3.321000000     4.437000000    -0.320000000
C     0.497000000     4.202000000    -1.988000000
C     0.853000000     3.364000000    -3.003000000
H     0.128000000     3.236000000    -3.804000000
C     2.072000000     2.702000000    -2.950000000
O     2.351000000     1.690000000    -3.786000000
C     2.359000000     0.307000000    -3.249000000
C     1.625000000    -0.637000000    -4.165000000
C     0.549000000    -0.196000000    -4.992000000
H     0.170000000     0.821000000    -5.052000000
C     1.806000000    -2.054000000    -4.091000000
H     2.641000000    -2.359000000    -3.466000000
O     3.809000000    -0.025000000    -3.024000000
H     1.863000000     0.364000000    -2.268000000
C     3.020000000     3.123000000    -1.983000000
C     4.457000000     2.664000000    -1.985000000
H     5.147000000     3.402000000    -1.570000000
H     4.789000000     2.488000000    -3.011000000
C     4.556000000     1.346000000    -1.162000000
C     4.288000000     0.104000000    -1.711000000
C     4.292000000    -1.086000000    -0.972000000
H     3.982000000    -1.998000000    -1.476000000
C     4.520000000    -0.950000000     0.405000000
O     4.424000000    -2.142000000     1.095000000
C     3.199000000    -2.361000000     1.707000000
H     2.457000000    -1.813000000     1.108000000
C     2.789000000    -3.778000000     1.443000000
C     1.749000000    -4.379000000     2.184000000
H     1.199000000    -3.863000000     2.967000000
C     3.318000000    -4.529000000     0.407000000
H     4.143000000    -4.180000000    -0.210000000
C     2.824000000    -5.829000000     0.172000000
O     3.160000000    -6.516000000    -0.977000000
C     1.857000000    -6.392000000     0.889000000
H     1.402000000    -7.377000000     0.820000000
C     1.242000000    -5.625000000     1.848000000
O     0.043000000    -6.024000000     2.467000000
C    -0.459000000    -5.517000000     3.623000000
C    -1.579000000    -4.657000000     3.579000000
H    -2.013000000    -4.344000000     2.633000000
C     0.052000000    -5.984000000     4.798000000
H     0.772000000    -6.797000000     4.835000000
C    -0.447000000    -5.588000000     6.033000000
H    -0.057000000    -5.968000000     6.973000000
C    -1.563000000    -4.719000000     6.038000000
H    -2.012000000    -4.343000000     6.954000000
C    -2.159000000    -4.284000000     4.830000000
O    -3.307000000    -3.498000000     4.936000000
C    -3.349000000    -2.158000000     4.674000000
C    -4.529000000    -1.658000000     4.369000000
H    -5.383000000    -2.327000000     4.310000000
C    -4.634000000    -0.281000000     3.968000000
O    -5.891000000     0.161000000     3.647000000
C    -6.144000000     1.263000000     2.899000000
C    -6.129000000     1.115000000     1.507000000
H    -6.128000000     0.160000000     0.988000000
C    -6.305000000     2.584000000     3.454000000
H    -6.380000000     2.688000000     4.534000000
C    -6.406000000     3.723000000     2.634000000
H    -6.501000000     4.714000000     3.069000000
C    -6.405000000     3.500000000     1.249000000
H    -6.718000000     4.328000000     0.618000000
C    -6.349000000     2.239000000     0.682000000
O    -6.295000000     2.175000000    -0.638000000
C    -5.157000000     2.449000000    -1.382000000
C    -5.312000000     2.368000000    -2.775000000
H    -6.276000000     2.007000000    -3.124000000
C    -4.279000000     2.749000000    -3.613000000
O    -4.410000000     2.706000000    -4.977000000
C    -3.325000000     2.256000000    -5.709000000
C    -2.872000000     1.007000000    -5.618000000
H    -3.206000000     0.367000000    -4.806000000
C    -2.752000000     3.184000000    -6.617000000
H    -2.991000000     4.245000000    -6.585000000
C    -1.862000000     2.810000000    -7.578000000
H    -1.482000000     3.509000000    -8.318000000
C    -1.379000000     1.482000000    -7.516000000
H    -0.757000000     1.103000000    -8.323000000
C    -1.826000000     0.635000000    -6.505000000
O    -1.292000000    -0.695000000    -6.470000000
C    -0.232000000    -1.116000000    -5.710000000
C     0.159000000    -2.450000000    -5.746000000
H    -0.452000000    -3.150000000    -6.309000000
C     1.146000000    -2.917000000    -4.944000000
O     1.309000000    -4.288000000    -4.833000000
C     2.310000000    -4.936000000    -4.175000000
C     3.532000000    -5.078000000    -4.842000000
H     3.571000000    -4.648000000    -5.840000000
C     4.515000000    -5.819000000    -4.247000000
H     5.426000000    -6.129000000    -4.751000000
C     4.417000000    -6.311000000    -2.959000000
H     5.254000000    -6.844000000    -2.513000000
C     3.235000000    -6.085000000    -2.260000000
C     2.135000000    -5.473000000    -2.889000000
H     1.211000000    -5.332000000    -2.333000000
C    -2.377000000    -1.078000000     0.424000000
H    -2.924000000    -1.706000000     1.122000000
C    -1.106000000    -0.586000000     0.846000000
H    -0.927000000    -0.789000000     1.899000000
C    -0.380000000     0.258000000     0.006000000
H     0.474000000     0.814000000     0.373000000
C    -0.796000000     0.520000000    -1.260000000
H    -0.210000000     1.154000000    -1.921000000
C    -2.005000000     0.020000000    -1.700000000
H    -2.338000000     0.222000000    -2.715000000
C    -2.762000000    -0.833000000    -0.910000000
C    -3.962000000    -1.533000000    -1.500000000
O    -4.403000000    -1.095000000    -2.489000000
O    -4.581000000    -2.370000000    -0.826000000
O    -3.891000000    -4.183000000     0.910000000
H    -4.008000000    -3.419000000     0.347000000
H    -4.220000000    -4.917000000     0.391000000
O     0.708000000    -2.601000000    -0.994000000
H     0.505000000    -2.369000000    -1.900000000
H    -0.085000000    -2.378000000    -0.506000000
O    -7.943000000    -2.946000000    -4.467000000
H    -8.745000000    -3.038000000    -3.952000000
H    -7.861000000    -2.004000000    -4.616000000
O    -5.210000000    -1.172000000    -5.151000000
H    -6.116000000    -0.863000000    -5.176000000
H    -4.963000000    -1.113000000    -4.228000000
O    -4.890000000    -6.756000000     0.133000000
H    -4.736000000    -7.395000000     0.829000000
H    -5.177000000    -7.280000000    -0.615000000
O    -6.000000000    -4.033000000    -2.827000000
H    -6.628000000    -3.460000000    -3.266000000
H    -5.531000000    -3.456000000    -2.223000000
O    -9.101000000     1.247000000    -0.747000000
H    -8.950000000     1.124000000     0.190000000
H    -8.229000000     1.193000000    -1.139000000
O    -4.677000000    -5.935000000     3.048000000
H    -4.528000000    -5.315000000     2.334000000
H    -4.833000000    -5.383000000     3.815000000
O    -6.972000000    -2.637000000     0.198000000
H    -6.059000000    -2.528000000    -0.067000000
H    -7.030000000    -3.546000000     0.491000000
O    -6.945000000    -5.192000000     1.178000000
H    -6.254000000    -5.667000000     0.715000000
H    -7.709000000    -5.765000000     1.122000000
O    -1.495000000    -5.298000000    -0.165000000
H    -0.901000000    -4.549000000    -0.132000000
H    -2.289000000    -4.994000000     0.276000000
O    -4.928000000    -1.319000000    -7.666000000
H    -4.853000000    -0.394000000    -7.899000000
H    -4.999000000    -1.320000000    -6.711000000
O    -4.584000000    -3.950000000    -7.033000000
H    -3.972000000    -3.939000000    -6.297000000
H    -4.574000000    -3.053000000    -7.366000000
O    -6.916000000    -0.449000000    -1.873000000
H    -6.975000000    -1.179000000    -1.256000000
H    -6.028000000    -0.506000000    -2.227000000
O    -9.510000000    -4.256000000    -0.746000000
H    -9.358000000    -5.040000000    -0.219000000
H    -8.635000000    -3.905000000    -0.912000000
O    -3.787000000    -5.298000000    -3.882000000
H    -3.314000000    -4.486000000    -4.064000000
H    -4.589000000    -5.014000000    -3.443000000
O    -2.862000000    -2.827000000    -4.934000000
H    -3.459000000    -2.262000000    -4.443000000
H    -2.467000000    -2.250000000    -5.587000000
O    -7.585000000     0.009000000    -4.852000000
H    -7.532000000    -0.160000000    -3.911000000
H    -8.507000000     0.211000000    -5.008000000
O    -7.274000000    -6.277000000    -2.526000000
H    -6.619000000    -6.967000000    -2.416000000
H    -6.775000000    -5.462000000    -2.466000000
