215
-1476.63172
C    -2.519000000    -2.210000000    -3.995000000
H    -3.002000000    -1.331000000    -4.414000000
C    -2.856000000    -2.600000000    -2.740000000
C    -2.435000000    -3.909000000    -2.350000000
H    -2.576000000    -4.265000000    -1.333000000
C    -3.509000000    -1.628000000    -1.673000000
O    -4.220000000    -0.591000000    -2.434000000
H    -2.655000000    -1.187000000    -1.137000000
O    -4.332000000    -2.278000000    -0.675000000
C    -4.190000000    -1.778000000     0.587000000
C    -3.325000000    -2.492000000     1.373000000
H    -2.827000000    -3.399000000     1.040000000
C    -3.070000000    -2.050000000     2.671000000
O    -2.117000000    -2.736000000     3.405000000
C    -3.625000000    -0.836000000     3.127000000
C    -3.198000000    -0.385000000     4.531000000
H    -3.960000000     0.313000000     4.884000000
C    -1.821000000     0.369000000     4.510000000
C    -1.797000000     1.760000000     4.370000000
H    -2.751000000     2.282000000     4.375000000
H    -3.174000000    -1.309000000     5.112000000
C    -4.515000000    -0.147000000     2.325000000
H    -5.007000000     0.762000000     2.661000000
C    -4.762000000    -0.588000000     1.007000000
C    -5.643000000     0.244000000     0.048000000
H    -6.415000000     0.805000000     0.579000000
H    -6.047000000    -0.583000000    -0.539000000
C    -4.760000000     1.135000000    -0.824000000
C    -4.428000000     2.396000000    -0.243000000
H    -4.864000000     2.655000000     0.719000000
C    -4.158000000     0.718000000    -1.989000000
C    -3.304000000     1.532000000    -2.693000000
H    -2.851000000     1.185000000    -3.618000000
C    -3.070000000     2.832000000    -2.223000000
O    -2.061000000     3.481000000    -3.016000000
C    -0.732000000     3.500000000    -2.494000000
C     0.280000000     3.220000000    -3.528000000
C     1.649000000     3.271000000    -3.229000000
H     2.003000000     3.674000000    -2.283000000
C    -0.097000000     2.750000000    -4.740000000
H    -1.148000000     2.621000000    -4.986000000
O    -0.558000000     4.665000000    -1.672000000
H    -0.682000000     2.623000000    -1.831000000
C    -3.558000000     3.275000000    -0.948000000
C    -3.167000000     4.561000000    -0.254000000
H    -3.933000000     4.963000000     0.412000000
H    -3.152000000     5.386000000    -0.970000000
C    -1.853000000     4.451000000     0.460000000
C    -1.853000000     4.285000000     1.835000000
H    -2.807000000     4.131000000     2.333000000
C    -0.650000000     4.473000000    -0.257000000
C     0.542000000     4.278000000     0.400000000
H     1.509000000     4.318000000    -0.095000000
C     0.538000000     4.225000000     1.787000000
O     1.770000000     4.033000000     2.375000000
C     2.113000000     2.629000000     2.700000000
C     3.565000000     2.335000000     2.456000000
C     4.272000000     2.972000000     1.475000000
H     3.814000000     3.706000000     0.817000000
C     4.160000000     1.206000000     3.084000000
H     3.549000000     0.568000000     3.719000000
O     1.800000000     2.401000000     4.108000000
H     1.458000000     2.063000000     2.022000000
C    -0.663000000     4.220000000     2.566000000
C    -0.695000000     4.020000000     4.030000000
H    -1.575000000     4.451000000     4.512000000
H     0.117000000     4.560000000     4.523000000
C    -0.654000000     2.451000000     4.297000000
C     0.556000000     1.767000000     4.355000000
C     0.551000000     0.406000000     4.624000000
H     1.497000000    -0.124000000     4.697000000
C    -0.630000000    -0.293000000     4.620000000
O    -0.448000000    -1.653000000     4.543000000
C    -0.736000000    -2.337000000     3.312000000
H    -0.651000000    -1.596000000     2.504000000
C     0.195000000    -3.455000000     3.097000000
C    -0.254000000    -4.604000000     2.503000000
H    -1.291000000    -4.785000000     2.233000000
C     1.585000000    -3.308000000     3.296000000
H     2.055000000    -2.370000000     3.581000000
C     2.445000000    -4.428000000     3.241000000
O     3.790000000    -4.370000000     3.418000000
C     1.950000000    -5.560000000     2.698000000
H     2.632000000    -6.399000000     2.584000000
C     0.605000000    -5.736000000     2.409000000
O     0.189000000    -6.857000000     1.767000000
C    -0.753000000    -6.898000000     0.766000000
C    -0.438000000    -6.352000000    -0.537000000
H     0.516000000    -5.876000000    -0.748000000
C    -1.950000000    -7.569000000     0.943000000
H    -2.225000000    -8.050000000     1.879000000
C    -2.848000000    -7.643000000    -0.094000000
H    -3.829000000    -8.050000000     0.137000000
C    -2.578000000    -7.160000000    -1.361000000
H    -3.326000000    -7.222000000    -2.148000000
C    -1.361000000    -6.498000000    -1.553000000
O    -1.118000000    -5.970000000    -2.811000000
C    -1.651000000    -4.681000000    -3.213000000
C    -1.223000000    -4.150000000    -4.398000000
H    -0.471000000    -4.617000000    -5.029000000
C    -1.733000000    -2.949000000    -4.816000000
O    -1.427000000    -2.591000000    -6.082000000
C    -1.465000000    -1.287000000    -6.582000000
C    -0.513000000    -0.367000000    -6.271000000
H     0.282000000    -0.588000000    -5.562000000
C    -2.536000000    -0.982000000    -7.425000000
H    -3.181000000    -1.787000000    -7.769000000
C    -2.613000000     0.251000000    -8.059000000
H    -3.434000000     0.392000000    -8.758000000
C    -1.614000000     1.184000000    -7.833000000
H    -1.581000000     2.153000000    -8.325000000
C    -0.537000000     0.873000000    -6.941000000
O     0.478000000     1.789000000    -6.862000000
C     0.868000000     2.358000000    -5.693000000
C     2.195000000     2.347000000    -5.371000000
H     2.943000000     2.033000000    -6.095000000
C     2.593000000     2.812000000    -4.116000000
O     3.891000000     2.809000000    -3.749000000
C     4.356000000     3.665000000    -2.826000000
C     5.009000000     3.167000000    -1.688000000
H     5.120000000     2.093000000    -1.555000000
C     4.513000000     5.031000000    -3.089000000
H     4.138000000     5.512000000    -3.989000000
C     5.147000000     5.881000000    -2.228000000
H     5.241000000     6.933000000    -2.485000000
C     5.786000000     5.350000000    -1.058000000
H     6.334000000     6.006000000    -0.387000000
C     5.727000000     3.988000000    -0.811000000
O     6.382000000     3.453000000     0.285000000
C     5.607000000     2.715000000     1.229000000
C     6.250000000     1.755000000     1.931000000
H     7.283000000     1.446000000     1.791000000
C     5.506000000     0.916000000     2.805000000
O     6.171000000    -0.212000000     3.241000000
C     5.502000000    -1.192000000     4.004000000
C     5.460000000    -1.103000000     5.387000000
H     5.889000000    -0.279000000     5.951000000
C     4.784000000    -2.147000000     6.113000000
H     4.782000000    -2.240000000     7.196000000
C     4.184000000    -3.210000000     5.490000000
H     3.663000000    -4.020000000     5.993000000
C     4.296000000    -3.288000000     4.064000000
C     4.896000000    -2.266000000     3.351000000
H     4.995000000    -2.371000000     2.274000000
C     2.963000000    -0.860000000     0.091000000
H     3.947000000    -0.424000000    -0.066000000
C     1.916000000     0.069000000     0.299000000
H     2.058000000     1.143000000     0.383000000
C     0.627000000    -0.485000000     0.358000000
H    -0.237000000     0.182000000     0.490000000
C     0.399000000    -1.807000000     0.250000000
H    -0.620000000    -2.179000000     0.316000000
C     1.451000000    -2.643000000    -0.147000000
H     1.257000000    -3.700000000    -0.308000000
C     2.763000000    -2.221000000    -0.267000000
C     3.889000000    -3.188000000    -0.525000000
O     3.667000000    -4.324000000    -0.860000000
O     5.022000000    -2.665000000    -0.717000000
O     4.856000000    -0.851000000    -5.355000000
H     5.720000000    -0.821000000    -4.943000000
H     4.246000000    -0.952000000    -4.625000000
O     9.577000000    -5.013000000    -1.682000000
H     9.243000000    -5.815000000    -2.084000000
H     8.797000000    -4.573000000    -1.343000000
O     1.974000000    -6.243000000    -5.066000000
H     2.204000000    -6.256000000    -4.137000000
H     1.856000000    -5.316000000    -5.271000000
O     3.300000000    -9.162000000     0.486000000
H     3.538000000    -9.596000000     1.305000000
H     3.618000000    -8.265000000     0.589000000
O     5.578000000    -6.081000000     5.057000000
H     4.869000000    -6.454000000     5.581000000
H     5.143000000    -5.461000000     4.472000000
O     5.833000000    -4.657000000    -2.736000000
H     5.025000000    -4.233000000    -2.448000000
H     6.283000000    -4.892000000    -1.924000000
O     1.854000000    -1.944000000    -3.660000000
H     2.367000000    -1.138000000    -3.600000000
H     1.732000000    -2.219000000    -2.751000000
O     5.981000000    -6.554000000    -5.152000000
H     5.704000000    -7.398000000    -4.796000000
H     5.612000000    -5.907000000    -4.550000000
O     2.060000000    -3.680000000    -5.795000000
H     1.973000000    -3.012000000    -5.116000000
H     2.968000000    -3.608000000    -6.088000000
O     8.006000000    -1.841000000     1.610000000
H     8.307000000    -2.503000000     2.232000000
H     7.480000000    -1.240000000     2.137000000
O     8.624000000    -0.209000000    -0.466000000
H     9.495000000    -0.429000000    -0.796000000
H     8.457000000    -0.854000000     0.221000000
O     3.548000000     0.023000000    -3.083000000
H     3.779000000     0.922000000    -3.316000000
H     4.120000000    -0.187000000    -2.345000000
O     6.838000000    -6.062000000     1.925000000
H     7.451000000    -6.668000000     2.342000000
H     6.797000000    -5.315000000     2.521000000
O     1.975000000    -8.827000000    -2.331000000
H     2.203000000    -7.900000000    -2.395000000
H     2.817000000    -9.277000000    -2.263000000
O     4.743000000    -6.684000000     0.326000000
H     4.494000000    -5.837000000    -0.046000000
H     5.628000000    -6.547000000     0.663000000
O     7.382000000    -2.479000000    -3.790000000
H     7.219000000    -3.203000000    -3.186000000
H     6.992000000    -1.717000000    -3.361000000
O     3.418000000    -6.528000000    -2.508000000
H     4.176000000    -6.520000000    -3.092000000
H     3.605000000    -5.846000000    -1.863000000
O     7.315000000    -3.732000000    -0.554000000
H     6.484000000    -3.264000000    -0.637000000
H     7.577000000    -3.594000000     0.357000000
O     6.327000000    -0.726000000    -2.011000000
H     5.883000000    -1.371000000    -1.461000000
H     6.984000000    -0.333000000    -1.436000000
