215
-1465.02087
C    -4.359000000    -0.053000000     3.206000000
H    -4.426000000     0.888000000     2.666000000
C    -3.192000000    -0.285000000     3.845000000
C    -2.974000000    -1.506000000     4.504000000
H    -2.051000000    -1.760000000     5.018000000
C    -1.978000000     0.713000000     3.766000000
O    -2.454000000     2.101000000     3.800000000
H    -1.388000000     0.536000000     2.855000000
O    -1.152000000     0.532000000     4.905000000
C     0.220000000     0.586000000     4.698000000
C     0.857000000    -0.656000000     4.529000000
H     0.290000000    -1.557000000     4.747000000
C     2.109000000    -0.706000000     3.982000000
O     2.662000000    -1.900000000     3.674000000
C     2.834000000     0.519000000     3.846000000
C     4.263000000     0.535000000     3.374000000
H     4.793000000     1.407000000     3.764000000
C     4.285000000     0.500000000     1.841000000
C     4.506000000     1.672000000     1.151000000
H     4.565000000     2.655000000     1.611000000
H     4.778000000    -0.350000000     3.754000000
C     2.240000000     1.764000000     4.146000000
H     2.840000000     2.663000000     4.029000000
C     0.870000000     1.739000000     4.479000000
C     0.149000000     3.105000000     4.645000000
H     0.969000000     3.814000000     4.782000000
H    -0.578000000     3.019000000     5.456000000
C    -0.536000000     3.521000000     3.412000000
C     0.168000000     4.336000000     2.530000000
H     1.170000000     4.618000000     2.844000000
C    -1.752000000     3.056000000     3.068000000
C    -2.310000000     3.321000000     1.796000000
H    -3.192000000     2.789000000     1.452000000
C    -1.569000000     4.057000000     0.907000000
O    -2.136000000     4.293000000    -0.288000000
C    -1.592000000     3.510000000    -1.414000000
C    -2.658000000     2.928000000    -2.350000000
C    -2.414000000     2.806000000    -3.745000000
H    -1.647000000     3.343000000    -4.297000000
C    -3.876000000     2.384000000    -1.803000000
H    -4.101000000     2.636000000    -0.770000000
O    -0.733000000     4.303000000    -2.162000000
H    -1.050000000     2.695000000    -0.911000000
C    -0.386000000     4.637000000     1.286000000
C     0.349000000     5.570000000     0.289000000
H     0.929000000     6.288000000     0.871000000
H    -0.260000000     6.184000000    -0.378000000
C     1.160000000     4.692000000    -0.683000000
C     2.493000000     4.371000000    -0.408000000
H     2.923000000     4.677000000     0.542000000
C     0.609000000     4.185000000    -1.857000000
C     1.285000000     3.371000000    -2.778000000
H     0.809000000     2.952000000    -3.661000000
C     2.619000000     3.080000000    -2.505000000
O     3.174000000     2.102000000    -3.269000000
C     3.039000000     0.784000000    -2.766000000
C     2.603000000    -0.130000000    -3.883000000
C     1.858000000     0.282000000    -4.979000000
H     1.504000000     1.310000000    -5.001000000
C     2.849000000    -1.500000000    -3.743000000
H     3.298000000    -1.867000000    -2.824000000
O     4.288000000     0.397000000    -2.237000000
H     2.277000000     0.799000000    -1.974000000
C     3.183000000     3.504000000    -1.296000000
C     4.613000000     3.088000000    -0.887000000
H     5.037000000     3.833000000    -0.210000000
H     5.230000000     3.064000000    -1.788000000
C     4.610000000     1.725000000    -0.237000000
C     4.491000000     0.485000000    -0.889000000
C     4.205000000    -0.638000000    -0.156000000
H     3.988000000    -1.594000000    -0.625000000
C     4.227000000    -0.719000000     1.201000000
O     4.010000000    -1.902000000     1.758000000
C     2.696000000    -2.161000000     2.220000000
H     2.054000000    -1.418000000     1.725000000
C     2.171000000    -3.502000000     1.813000000
C     1.178000000    -4.160000000     2.549000000
H     0.878000000    -3.602000000     3.433000000
C     2.651000000    -4.189000000     0.655000000
H     3.384000000    -3.713000000     0.010000000
C     2.095000000    -5.384000000     0.311000000
O     2.730000000    -6.056000000    -0.681000000
C     0.975000000    -5.906000000     0.990000000
H     0.527000000    -6.820000000     0.608000000
C     0.575000000    -5.365000000     2.197000000
O    -0.318000000    -6.000000000     3.034000000
C    -0.837000000    -5.462000000     4.226000000
C    -1.967000000    -4.691000000     4.178000000
H    -2.423000000    -4.506000000     3.208000000
C    -0.276000000    -5.721000000     5.513000000
H     0.616000000    -6.341000000     5.518000000
C    -0.910000000    -5.314000000     6.697000000
H    -0.497000000    -5.405000000     7.698000000
C    -2.072000000    -4.546000000     6.590000000
H    -2.596000000    -4.257000000     7.497000000
C    -2.587000000    -4.278000000     5.366000000
O    -3.812000000    -3.599000000     5.255000000
C    -3.999000000    -2.428000000     4.596000000
C    -5.232000000    -2.165000000     3.956000000
H    -5.995000000    -2.929000000     3.831000000
C    -5.387000000    -1.006000000     3.145000000
O    -6.504000000    -0.888000000     2.351000000
C    -6.714000000     0.112000000     1.355000000
C    -6.125000000     0.029000000     0.078000000
H    -5.462000000    -0.818000000    -0.080000000
C    -7.549000000     1.155000000     1.609000000
H    -8.106000000     1.249000000     2.538000000
C    -7.572000000     2.209000000     0.616000000
H    -8.239000000     3.047000000     0.801000000
C    -6.910000000     2.164000000    -0.587000000
H    -7.052000000     2.859000000    -1.410000000
C    -6.210000000     1.024000000    -0.875000000
O    -5.713000000     0.815000000    -2.157000000
C    -4.733000000     1.648000000    -2.614000000
C    -4.500000000     1.581000000    -3.971000000
H    -5.170000000     0.971000000    -4.571000000
C    -3.289000000     2.116000000    -4.554000000
O    -3.196000000     2.103000000    -5.891000000
C    -1.947000000     2.147000000    -6.508000000
C    -1.072000000     1.028000000    -6.401000000
H    -1.324000000     0.180000000    -5.770000000
C    -1.662000000     3.116000000    -7.434000000
H    -2.443000000     3.857000000    -7.581000000
C    -0.489000000     3.082000000    -8.175000000
H    -0.234000000     3.916000000    -8.824000000
C     0.407000000     2.071000000    -7.979000000
H     1.331000000     2.037000000    -8.550000000
C     0.110000000     1.020000000    -7.112000000
O     0.889000000    -0.108000000    -7.148000000
C     1.421000000    -0.562000000    -5.981000000
C     1.775000000    -1.914000000    -5.884000000
H     1.561000000    -2.518000000    -6.763000000
C     2.387000000    -2.415000000    -4.703000000
O     2.815000000    -3.733000000    -4.767000000
C     3.504000000    -4.316000000    -3.797000000
C     4.833000000    -4.346000000    -3.810000000
H     5.438000000    -3.830000000    -4.551000000
C     5.582000000    -5.002000000    -2.830000000
H     6.666000000    -4.931000000    -2.808000000
C     4.877000000    -5.600000000    -1.757000000
H     5.395000000    -5.995000000    -0.887000000
C     3.479000000    -5.492000000    -1.699000000
C     2.838000000    -4.872000000    -2.704000000
H     1.753000000    -4.829000000    -2.649000000
C    -2.278000000    -1.757000000    -0.010000000
H    -2.840000000    -2.439000000     0.623000000
C    -1.257000000    -1.041000000     0.595000000
H    -0.997000000    -1.247000000     1.630000000
C    -0.495000000    -0.140000000    -0.198000000
H     0.370000000     0.361000000     0.260000000
C    -0.674000000    -0.131000000    -1.586000000
H    -0.028000000     0.517000000    -2.173000000
C    -1.812000000    -0.776000000    -2.089000000
H    -2.212000000    -0.732000000    -3.098000000
C    -2.633000000    -1.659000000    -1.325000000
C    -3.796000000    -2.401000000    -1.924000000
O    -4.019000000    -2.304000000    -3.123000000
O    -4.377000000    -3.223000000    -1.244000000
O    -2.806000000    -6.880000000     0.960000000
H    -1.953000000    -6.615000000     1.305000000
H    -2.888000000    -6.403000000     0.134000000
O    -5.194000000    -5.281000000    -4.863000000
H    -4.678000000    -6.076000000    -4.999000000
H    -5.393000000    -5.281000000    -3.926000000
O    -7.503000000    -3.616000000    -5.266000000
H    -6.785000000    -4.241000000    -5.167000000
H    -7.073000000    -2.761000000    -5.291000000
O    -2.103000000    -2.031000000    -7.376000000
H    -2.345000000    -2.696000000    -6.731000000
H    -2.932000000    -1.615000000    -7.614000000
O    -5.648000000    -7.255000000    -0.148000000
H    -4.840000000    -7.018000000     0.307000000
H    -6.210000000    -7.621000000     0.535000000
O    -5.953000000    -5.519000000    -2.369000000
H    -5.702000000    -4.682000000    -1.979000000
H    -5.801000000    -6.161000000    -1.675000000
O    -9.644000000    -0.074000000    -2.354000000
H    -8.963000000     0.557000000    -2.589000000
H   -10.440000000     0.451000000    -2.272000000
O    -2.910000000    -3.624000000    -5.079000000
H    -3.094000000    -3.040000000    -4.343000000
H    -3.765000000    -3.980000000    -5.321000000
O     0.805000000    -7.374000000    -2.879000000
H     0.188000000    -6.657000000    -2.736000000
H     1.372000000    -7.066000000    -3.586000000
O    -7.582000000    -3.290000000     0.646000000
H    -7.631000000    -2.828000000    -0.191000000
H    -7.723000000    -2.609000000     1.304000000
O    -5.222000000    -4.538000000     0.767000000
H    -6.108000000    -4.214000000     0.929000000
H    -4.908000000    -4.016000000     0.028000000
O    -5.775000000    -1.648000000    -4.878000000
H    -5.186000000    -2.039000000    -4.233000000
H    -5.242000000    -0.984000000    -5.317000000
O    -8.725000000    -5.184000000    -2.729000000
H    -8.750000000    -4.292000000    -2.380000000
H    -7.822000000    -5.469000000    -2.590000000
O    -2.769000000    -5.569000000    -1.198000000
H    -3.173000000    -4.716000000    -1.360000000
H    -2.242000000    -5.736000000    -1.980000000
O    -4.710000000    -6.118000000     2.901000000
H    -4.844000000    -5.437000000     2.242000000
H    -4.064000000    -6.706000000     2.509000000
O    -2.820000000    -8.241000000    -2.038000000
H    -3.194000000    -7.394000000    -1.796000000
H    -3.079000000    -8.367000000    -2.950000000
O    -7.840000000    -2.492000000    -2.082000000
H    -8.356000000    -1.826000000    -2.535000000
H    -6.990000000    -2.477000000    -2.522000000
O    -9.685000000    -5.589000000     0.170000000
H    -8.836000000    -5.190000000     0.363000000
H   -10.321000000    -4.897000000     0.351000000
O    -1.212000000    -5.646000000    -3.554000000
H    -1.223000000    -6.291000000    -4.261000000
H    -1.649000000    -4.878000000    -3.923000000
