215
-1431.80459
C    -3.638000000    -0.589000000     3.677000000
H    -4.089000000     0.400000000     3.677000000
C    -2.292000000    -0.775000000     3.760000000
C    -1.784000000    -2.086000000     3.786000000
H    -0.728000000    -2.284000000     3.952000000
C    -1.379000000     0.444000000     3.762000000
O    -1.967000000     1.691000000     4.237000000
H    -0.967000000     0.611000000     2.756000000
O    -0.218000000     0.190000000     4.691000000
C     1.057000000     0.508000000     4.311000000
C     1.956000000    -0.553000000     4.077000000
H     1.634000000    -1.577000000     4.246000000
C     3.178000000    -0.263000000     3.516000000
O     4.030000000    -1.311000000     3.220000000
C     3.580000000     1.046000000     3.299000000
C     4.873000000     1.444000000     2.658000000
H     5.115000000     2.458000000     2.982000000
C     4.656000000     1.334000000     1.172000000
C     4.439000000     2.446000000     0.438000000
H     4.480000000     3.436000000     0.884000000
H     5.781000000     0.943000000     2.999000000
C     2.764000000     2.092000000     3.647000000
H     3.024000000     3.116000000     3.389000000
C     1.451000000     1.846000000     4.202000000
C     0.566000000     2.982000000     4.562000000
H     1.279000000     3.741000000     4.890000000
H     0.037000000     2.641000000     5.455000000
C    -0.399000000     3.400000000     3.486000000
C    -0.071000000     4.210000000     2.434000000
H     0.915000000     4.667000000     2.408000000
C    -1.685000000     2.759000000     3.436000000
C    -2.510000000     3.117000000     2.410000000
H    -3.476000000     2.619000000     2.419000000
C    -2.181000000     4.060000000     1.472000000
O    -3.015000000     4.240000000     0.349000000
C    -2.693000000     3.620000000    -0.900000000
C    -3.861000000     3.021000000    -1.632000000
C    -3.968000000     3.067000000    -2.988000000
H    -3.321000000     3.761000000    -3.518000000
C    -4.689000000     2.092000000    -0.969000000
H    -4.599000000     1.899000000     0.097000000
O    -1.923000000     4.498000000    -1.724000000
H    -2.064000000     2.739000000    -0.708000000
C    -0.894000000     4.625000000     1.408000000
C    -0.470000000     5.548000000     0.409000000
H     0.163000000     6.329000000     0.834000000
H    -1.279000000     6.147000000    -0.016000000
C     0.263000000     4.890000000    -0.769000000
C     1.638000000     4.646000000    -0.850000000
H     2.355000000     4.982000000    -0.106000000
C    -0.552000000     4.368000000    -1.703000000
C    -0.029000000     3.535000000    -2.694000000
H    -0.649000000     2.955000000    -3.372000000
C     1.364000000     3.308000000    -2.819000000
O     1.878000000     2.423000000    -3.661000000
C     2.082000000     1.078000000    -3.130000000
C     1.562000000    -0.084000000    -3.907000000
C     0.361000000     0.038000000    -4.609000000
H    -0.271000000     0.913000000    -4.485000000
C     2.248000000    -1.265000000    -4.074000000
H     3.247000000    -1.327000000    -3.650000000
O     3.534000000     1.033000000    -2.851000000
H     1.735000000     1.088000000    -2.086000000
C     2.210000000     3.905000000    -1.923000000
C     3.762000000     3.692000000    -1.845000000
H     4.088000000     4.647000000    -1.427000000
H     4.083000000     3.672000000    -2.889000000
C     4.129000000     2.432000000    -0.933000000
C     4.017000000     1.220000000    -1.553000000
C     4.418000000     0.069000000    -0.937000000
H     4.442000000    -0.868000000    -1.487000000
C     4.714000000     0.185000000     0.478000000
O     4.912000000    -1.106000000     0.991000000
C     3.860000000    -1.622000000     1.743000000
H     2.941000000    -1.096000000     1.443000000
C     3.677000000    -3.114000000     1.464000000
C     3.247000000    -3.886000000     2.564000000
H     3.151000000    -3.464000000     3.561000000
C     3.788000000    -3.688000000     0.214000000
H     4.202000000    -3.137000000    -0.626000000
C     3.597000000    -5.031000000     0.034000000
O     3.686000000    -5.636000000    -1.177000000
C     3.137000000    -5.788000000     1.049000000
H     2.855000000    -6.830000000     0.923000000
C     2.938000000    -5.214000000     2.319000000
O     2.455000000    -5.972000000     3.350000000
C     1.444000000    -5.536000000     4.097000000
C     0.184000000    -5.321000000     3.492000000
H     0.053000000    -5.526000000     2.433000000
C     1.656000000    -5.272000000     5.427000000
H     2.574000000    -5.467000000     5.976000000
C     0.553000000    -4.863000000     6.222000000
H     0.691000000    -4.862000000     7.300000000
C    -0.626000000    -4.583000000     5.597000000
H    -1.373000000    -4.071000000     6.198000000
C    -0.793000000    -4.768000000     4.262000000
O    -2.055000000    -4.477000000     3.681000000
C    -2.567000000    -3.191000000     3.560000000
C    -3.899000000    -2.958000000     3.432000000
H    -4.601000000    -3.769000000     3.258000000
C    -4.473000000    -1.726000000     3.491000000
O    -5.842000000    -1.495000000     3.362000000
C    -6.341000000    -0.501000000     2.547000000
C    -5.915000000    -0.496000000     1.212000000
H    -5.325000000    -1.323000000     0.824000000
C    -7.204000000     0.438000000     3.040000000
H    -7.516000000     0.340000000     4.077000000
C    -7.709000000     1.457000000     2.175000000
H    -8.378000000     2.243000000     2.516000000
C    -7.393000000     1.360000000     0.879000000
H    -7.751000000     2.096000000     0.163000000
C    -6.509000000     0.369000000     0.357000000
O    -6.251000000     0.296000000    -0.939000000
C    -5.510000000     1.260000000    -1.681000000
C    -5.585000000     1.238000000    -3.076000000
H    -6.197000000     0.444000000    -3.496000000
C    -4.829000000     2.211000000    -3.697000000
O    -4.892000000     2.318000000    -5.078000000
C    -3.908000000     1.740000000    -5.815000000
C    -3.177000000     0.616000000    -5.356000000
H    -3.431000000     0.177000000    -4.394000000
C    -3.647000000     2.327000000    -7.091000000
H    -4.301000000     3.137000000    -7.404000000
C    -2.683000000     1.703000000    -7.854000000
H    -2.470000000     2.124000000    -8.833000000
C    -1.880000000     0.635000000    -7.346000000
H    -1.079000000     0.233000000    -7.961000000
C    -2.132000000     0.089000000    -6.091000000
O    -1.504000000    -1.056000000    -5.728000000
C    -0.217000000    -1.024000000    -5.256000000
C     0.478000000    -2.218000000    -5.338000000
H     0.001000000    -3.035000000    -5.872000000
C     1.747000000    -2.314000000    -4.835000000
O     2.520000000    -3.389000000    -5.188000000
C     3.590000000    -3.887000000    -4.411000000
C     4.941000000    -3.580000000    -4.632000000
H     5.178000000    -2.849000000    -5.401000000
C     5.933000000    -3.907000000    -3.673000000
H     6.941000000    -3.536000000    -3.839000000
C     5.602000000    -4.669000000    -2.520000000
H     6.243000000    -4.940000000    -1.685000000
C     4.208000000    -4.992000000    -2.314000000
C     3.256000000    -4.621000000    -3.242000000
H     2.237000000    -4.967000000    -3.091000000
C    -1.889000000    -2.453000000     0.095000000
H    -2.122000000    -3.419000000     0.537000000
C    -0.666000000    -1.774000000     0.437000000
H    -0.066000000    -2.061000000     1.297000000
C    -0.550000000    -0.464000000    -0.078000000
H     0.283000000     0.091000000     0.361000000
C    -1.379000000     0.082000000    -1.070000000
H    -1.275000000     1.109000000    -1.411000000
C    -2.338000000    -0.746000000    -1.602000000
H    -3.037000000    -0.423000000    -2.370000000
C    -2.626000000    -1.992000000    -0.992000000
C    -3.751000000    -2.878000000    -1.546000000
O    -4.240000000    -2.745000000    -2.636000000
O    -4.264000000    -3.765000000    -0.894000000
O    -0.666000000    -6.497000000    -0.082000000
H    -0.388000000    -7.285000000    -0.549000000
H    -1.103000000    -5.966000000    -0.748000000
O    -6.692000000    -6.115000000    -6.120000000
H    -6.712000000    -5.531000000    -5.362000000
H    -6.420000000    -5.555000000    -6.847000000
O    -3.203000000    -3.577000000    -7.220000000
H    -2.402000000    -3.758000000    -6.728000000
H    -3.910000000    -3.836000000    -6.630000000
O    -7.717000000    -6.786000000    -1.695000000
H    -7.303000000    -5.936000000    -1.546000000
H    -8.387000000    -6.848000000    -1.014000000
O    -6.872000000    -2.606000000    -2.613000000
H    -6.013000000    -2.384000000    -2.254000000
H    -7.084000000    -3.453000000    -2.222000000
O    -5.161000000    -7.902000000    -2.352000000
H    -6.054000000    -7.703000000    -2.072000000
H    -5.014000000    -8.802000000    -2.061000000
O    -9.397000000     0.674000000    -1.328000000
H    -8.580000000     0.276000000    -1.028000000
H    -9.929000000     0.754000000    -0.537000000
O    -5.036000000    -3.202000000    -5.118000000
H    -5.578000000    -3.637000000    -4.459000000
H    -4.416000000    -2.679000000    -4.610000000
O    -0.542000000    -6.961000000    -4.066000000
H    -0.989000000    -6.122000000    -4.178000000
H    -1.243000000    -7.581000000    -3.864000000
O    -3.133000000    -8.020000000    -4.500000000
H    -3.838000000    -7.871000000    -3.870000000
H    -3.432000000    -8.764000000    -5.022000000
O    -4.051000000    -5.672000000     1.259000000
H    -4.098000000    -6.185000000     0.452000000
H    -4.081000000    -4.761000000     0.966000000
O    -8.433000000    -1.436000000    -4.399000000
H    -7.806000000    -1.718000000    -3.733000000
H    -7.944000000    -1.475000000    -5.221000000
O    -7.028000000    -1.836000000    -6.586000000
H    -6.276000000    -2.422000000    -6.497000000
H    -6.643000000    -0.965000000    -6.684000000
O    -2.988000000    -6.063000000    -1.747000000
H    -3.406000000    -5.221000000    -1.567000000
H    -3.678000000    -6.593000000    -2.147000000
O    -1.814000000    -7.110000000     2.172000000
H    -1.468000000    -6.948000000     1.294000000
H    -2.334000000    -6.332000000     2.372000000
O    -6.864000000    -4.472000000    -0.481000000
H    -6.903000000    -4.809000000     0.414000000
H    -5.946000000    -4.228000000    -0.605000000
O    -4.401000000    -7.443000000     3.306000000
H    -4.161000000    -6.780000000     2.658000000
H    -5.232000000    -7.135000000     3.667000000
O    -8.326000000    -2.278000000    -0.142000000
H    -8.016000000    -1.849000000    -0.939000000
H    -7.857000000    -3.111000000    -0.120000000
O    -2.257000000    -4.529000000    -4.081000000
H    -2.808000000    -3.806000000    -3.783000000
H    -2.490000000    -5.259000000    -3.507000000
