215
-1448.62669
C    -2.428000000    -0.735000000     3.696000000
H    -2.829000000     0.188000000     3.283000000
C    -1.192000000    -0.751000000     4.298000000
C    -0.682000000    -1.908000000     4.843000000
H     0.364000000    -2.010000000     5.122000000
C    -0.363000000     0.559000000     4.076000000
O    -1.051000000     1.776000000     4.395000000
H    -0.079000000     0.522000000     3.014000000
O     0.851000000     0.389000000     4.730000000
C     2.032000000     0.733000000     4.046000000
C     2.745000000    -0.278000000     3.536000000
H     2.526000000    -1.315000000     3.778000000
C     3.787000000    -0.010000000     2.671000000
O     4.419000000    -1.074000000     2.004000000
C     4.093000000     1.292000000     2.256000000
C     5.187000000     1.590000000     1.393000000
H     5.697000000     2.546000000     1.533000000
C     4.821000000     1.535000000    -0.040000000
C     4.307000000     2.660000000    -0.697000000
H     4.354000000     3.599000000    -0.150000000
H     6.047000000     0.922000000     1.477000000
C     3.288000000     2.343000000     2.757000000
H     3.429000000     3.358000000     2.393000000
C     2.267000000     2.009000000     3.633000000
C     1.520000000     3.195000000     4.218000000
H     2.198000000     4.035000000     4.381000000
H     1.185000000     2.949000000     5.228000000
C     0.321000000     3.484000000     3.328000000
C     0.421000000     4.493000000     2.365000000
H     1.339000000     5.065000000     2.259000000
C    -0.825000000     2.746000000     3.494000000
C    -1.934000000     3.080000000     2.699000000
H    -2.869000000     2.540000000     2.830000000
C    -1.812000000     3.958000000     1.635000000
O    -2.873000000     4.007000000     0.814000000
C    -2.756000000     3.290000000    -0.429000000
C    -4.040000000     2.644000000    -0.911000000
C    -4.341000000     2.327000000    -2.211000000
H    -3.672000000     2.701000000    -2.982000000
C    -4.927000000     2.221000000     0.082000000
H    -4.547000000     2.285000000     1.098000000
O    -2.410000000     4.289000000    -1.439000000
H    -1.953000000     2.541000000    -0.357000000
C    -0.626000000     4.679000000     1.452000000
C    -0.452000000     5.690000000     0.305000000
H     0.256000000     6.493000000     0.521000000
H    -1.392000000     6.191000000     0.065000000
C    -0.075000000     5.020000000    -1.009000000
C     1.277000000     4.862000000    -1.289000000
H     2.066000000     5.307000000    -0.688000000
C    -1.026000000     4.287000000    -1.756000000
C    -0.612000000     3.519000000    -2.783000000
H    -1.364000000     2.954000000    -3.329000000
C     0.675000000     3.419000000    -3.145000000
O     0.982000000     2.538000000    -4.098000000
C     1.441000000     1.193000000    -3.626000000
C     0.802000000     0.085000000    -4.398000000
C    -0.465000000     0.299000000    -5.013000000
H    -0.868000000     1.308000000    -5.030000000
C     1.425000000    -1.212000000    -4.469000000
H     2.410000000    -1.416000000    -4.058000000
O     2.892000000     1.204000000    -3.830000000
H     1.238000000     1.011000000    -2.560000000
C     1.652000000     4.055000000    -2.330000000
C     3.118000000     3.831000000    -2.595000000
H     3.652000000     4.694000000    -2.191000000
H     3.314000000     3.902000000    -3.667000000
C     3.741000000     2.600000000    -1.999000000
C     3.639000000     1.363000000    -2.642000000
C     4.156000000     0.259000000    -2.028000000
H     3.908000000    -0.704000000    -2.466000000
C     4.665000000     0.323000000    -0.747000000
O     4.845000000    -0.963000000    -0.209000000
C     3.954000000    -1.375000000     0.768000000
H     3.036000000    -0.796000000     0.589000000
C     3.678000000    -2.902000000     0.728000000
C     3.480000000    -3.563000000     1.931000000
H     3.788000000    -3.121000000     2.874000000
C     3.415000000    -3.555000000    -0.491000000
H     3.588000000    -2.947000000    -1.375000000
C     3.082000000    -4.961000000    -0.452000000
O     2.783000000    -5.702000000    -1.594000000
C     2.940000000    -5.643000000     0.809000000
H     2.620000000    -6.681000000     0.848000000
C     3.230000000    -4.952000000     1.977000000
O     3.265000000    -5.632000000     3.138000000
C     2.501000000    -5.182000000     4.247000000
C     1.084000000    -4.893000000     4.175000000
H     0.552000000    -4.904000000     3.227000000
C     3.090000000    -5.247000000     5.509000000
H     4.121000000    -5.592000000     5.485000000
C     2.308000000    -5.099000000     6.675000000
H     2.809000000    -5.168000000     7.637000000
C     0.938000000    -4.812000000     6.560000000
H     0.271000000    -4.710000000     7.412000000
C     0.338000000    -4.620000000     5.309000000
O    -0.947000000    -4.335000000     5.223000000
C    -1.387000000    -3.159000000     4.644000000
C    -2.599000000    -3.106000000     4.011000000
H    -3.083000000    -4.069000000     3.868000000
C    -3.141000000    -1.894000000     3.533000000
O    -4.299000000    -1.993000000     2.837000000
C    -5.261000000    -1.046000000     2.959000000
C    -5.823000000    -0.407000000     1.844000000
H    -5.421000000    -0.678000000     0.871000000
C    -5.856000000    -0.792000000     4.226000000
H    -5.447000000    -1.303000000     5.093000000
C    -6.834000000     0.201000000     4.295000000
H    -7.281000000     0.310000000     5.280000000
C    -7.212000000     0.973000000     3.184000000
H    -7.958000000     1.762000000     3.232000000
C    -6.668000000     0.671000000     1.991000000
O    -7.071000000     1.336000000     0.836000000
C    -6.177000000     1.645000000    -0.218000000
C    -6.470000000     1.511000000    -1.566000000
H    -7.418000000     1.082000000    -1.880000000
C    -5.579000000     1.707000000    -2.589000000
O    -5.955000000     1.516000000    -3.916000000
C    -5.025000000     1.511000000    -4.903000000
C    -4.179000000     0.377000000    -5.136000000
H    -4.361000000    -0.559000000    -4.614000000
C    -4.813000000     2.655000000    -5.686000000
H    -5.424000000     3.514000000    -5.421000000
C    -3.891000000     2.708000000    -6.770000000
H    -3.781000000     3.625000000    -7.343000000
C    -3.105000000     1.544000000    -6.965000000
H    -2.327000000     1.572000000    -7.725000000
C    -3.171000000     0.458000000    -6.135000000
O    -2.341000000    -0.629000000    -6.264000000
C    -1.140000000    -0.756000000    -5.603000000
C    -0.536000000    -2.036000000    -5.679000000
H    -0.921000000    -2.768000000    -6.385000000
C     0.743000000    -2.276000000    -5.108000000
O     1.378000000    -3.386000000    -5.574000000
C     2.341000000    -4.096000000    -4.879000000
C     3.498000000    -4.616000000    -5.543000000
H     3.712000000    -4.269000000    -6.551000000
C     4.406000000    -5.412000000    -4.834000000
H     5.318000000    -5.718000000    -5.341000000
C     4.215000000    -5.788000000    -3.533000000
H     4.982000000    -6.286000000    -2.946000000
C     3.074000000    -5.285000000    -2.858000000
C     2.188000000    -4.415000000    -3.507000000
H     1.338000000    -4.074000000    -2.921000000
C    -1.346000000    -2.734000000     0.597000000
H    -1.268000000    -3.780000000     0.884000000
C    -0.308000000    -1.775000000     0.673000000
H     0.663000000    -1.985000000     1.116000000
C    -0.461000000    -0.554000000     0.046000000
H     0.399000000     0.073000000     0.032000000
C    -1.614000000    -0.217000000    -0.571000000
H    -1.667000000     0.677000000    -1.186000000
C    -2.708000000    -1.107000000    -0.526000000
H    -3.633000000    -0.821000000    -1.021000000
C    -2.604000000    -2.375000000     0.007000000
C    -3.785000000    -3.326000000     0.070000000
O    -4.906000000    -2.996000000    -0.354000000
O    -3.580000000    -4.484000000     0.407000000
O    -0.207000000    -6.142000000     0.285000000
H     0.209000000    -6.874000000    -0.169000000
H    -0.721000000    -5.701000000    -0.391000000
O    -6.004000000    -7.061000000     3.480000000
H    -5.118000000    -6.704000000     3.540000000
H    -6.556000000    -6.303000000     3.291000000
O    -7.697000000    -4.936000000    -3.472000000
H    -7.688000000    -5.791000000    -3.902000000
H    -8.558000000    -4.572000000    -3.679000000
O    -5.162000000    -3.600000000    -2.976000000
H    -4.997000000    -3.381000000    -2.059000000
H    -6.095000000    -3.810000000    -3.008000000
O    -2.646000000    -6.194000000    -1.477000000
H    -2.876000000    -5.570000000    -0.789000000
H    -3.474000000    -6.375000000    -1.923000000
O    -3.501000000    -5.182000000    -4.496000000
H    -2.920000000    -5.417000000    -3.773000000
H    -4.005000000    -4.438000000    -4.165000000
O    -9.154000000    -4.034000000     3.589000000
H    -8.279000000    -4.167000000     3.955000000
H    -8.999000000    -3.606000000     2.747000000
O    -6.852000000    -4.530000000     4.636000000
H    -6.309000000    -3.751000000     4.513000000
H    -7.223000000    -4.427000000     5.513000000
O    -7.255000000    -3.452000000     1.491000000
H    -6.490000000    -2.962000000     1.190000000
H    -7.294000000    -4.214000000     0.913000000
O    -8.757000000    -0.733000000    -3.660000000
H    -8.242000000    -1.216000000    -3.014000000
H    -8.548000000     0.186000000    -3.494000000
O    -9.877000000     0.054000000     0.199000000
H    -9.060000000    -0.341000000    -0.108000000
H    -9.955000000    -0.235000000     1.108000000
O    -1.066000000    -7.338000000     2.655000000
H    -0.681000000    -6.866000000     1.917000000
H    -1.997000000    -7.115000000     2.623000000
O    -1.046000000    -7.828000000    -3.209000000
H    -1.554000000    -7.182000000    -2.718000000
H    -1.688000000    -8.258000000    -3.773000000
O    -6.064000000    -6.160000000    -1.289000000
H    -5.581000000    -5.395000000    -0.977000000
H    -6.926000000    -5.817000000    -1.527000000
O    -8.381000000    -4.660000000    -0.810000000
H    -8.291000000    -4.585000000    -1.760000000
H    -9.112000000    -4.082000000    -0.592000000
O    -2.008000000    -9.043000000     0.170000000
H    -2.746000000    -9.125000000    -0.433000000
H    -2.024000000    -8.127000000     0.447000000
O    -3.675000000    -6.308000000     2.218000000
H    -4.218000000    -6.944000000     1.750000000
H    -3.823000000    -5.482000000     1.757000000
O    -7.341000000    -1.942000000    -1.709000000
H    -7.655000000    -2.745000000    -1.294000000
H    -6.389000000    -1.986000000    -1.628000000
O    -4.829000000    -8.036000000     0.288000000
H    -4.937000000    -8.862000000    -0.185000000
H    -5.258000000    -7.385000000    -0.267000000
