215
-1463.58459
C    -2.151000000    -0.526000000     4.293000000
H    -2.509000000     0.374000000     3.798000000
C    -0.836000000    -0.524000000     4.620000000
C    -0.262000000    -1.705000000     5.207000000
H     0.786000000    -1.841000000     5.461000000
C     0.144000000     0.646000000     4.239000000
O    -0.429000000     1.859000000     4.585000000
H     0.125000000     0.534000000     3.145000000
O     1.486000000     0.491000000     4.853000000
C     2.614000000     0.763000000     4.072000000
C     3.258000000    -0.340000000     3.577000000
H     2.976000000    -1.366000000     3.799000000
C     4.160000000    -0.230000000     2.544000000
O     4.499000000    -1.408000000     1.843000000
C     4.463000000     1.053000000     2.047000000
C     5.372000000     1.247000000     0.837000000
H     5.843000000     2.230000000     0.900000000
C     4.688000000     1.120000000    -0.472000000
C     4.352000000     2.303000000    -1.160000000
H     4.634000000     3.229000000    -0.664000000
H     6.216000000     0.555000000     0.880000000
C     3.853000000     2.196000000     2.675000000
H     3.951000000     3.142000000     2.148000000
C     2.954000000     2.058000000     3.714000000
C     2.117000000     3.238000000     4.209000000
H     2.766000000     4.115000000     4.170000000
H     1.780000000     2.990000000     5.217000000
C     0.908000000     3.508000000     3.295000000
C     0.946000000     4.366000000     2.161000000
H     1.875000000     4.898000000     1.973000000
C    -0.264000000     2.808000000     3.584000000
C    -1.300000000     2.992000000     2.692000000
H    -2.261000000     2.559000000     2.956000000
C    -1.292000000     3.862000000     1.611000000
O    -2.473000000     3.913000000     0.951000000
C    -2.559000000     3.185000000    -0.344000000
C    -3.864000000     2.561000000    -0.602000000
C    -4.314000000     2.366000000    -1.854000000
H    -3.628000000     2.646000000    -2.649000000
C    -4.730000000     2.103000000     0.432000000
H    -4.440000000     2.349000000     1.450000000
O    -2.182000000     4.084000000    -1.360000000
H    -1.723000000     2.470000000    -0.379000000
C    -0.160000000     4.646000000     1.373000000
C    -0.077000000     5.510000000     0.138000000
H     0.758000000     6.205000000     0.244000000
H    -1.005000000     6.068000000     0.001000000
C     0.196000000     4.691000000    -1.075000000
C     1.549000000     4.427000000    -1.413000000
H     2.362000000     4.582000000    -0.708000000
C    -0.883000000     4.096000000    -1.772000000
C    -0.639000000     3.394000000    -2.924000000
H    -1.500000000     3.098000000    -3.517000000
C     0.684000000     3.182000000    -3.355000000
O     0.986000000     2.391000000    -4.463000000
C     1.393000000     1.040000000    -4.213000000
C     0.628000000    -0.006000000    -5.051000000
C    -0.622000000     0.347000000    -5.542000000
H    -0.939000000     1.383000000    -5.452000000
C     1.096000000    -1.324000000    -5.281000000
H     2.046000000    -1.579000000    -4.818000000
O     2.916000000     0.922000000    -4.319000000
H     1.160000000     0.789000000    -3.168000000
C     1.767000000     3.769000000    -2.612000000
C     3.201000000     3.582000000    -3.009000000
H     3.836000000     4.418000000    -2.709000000
H     3.233000000     3.568000000    -4.100000000
C     3.691000000     2.303000000    -2.404000000
C     3.510000000     1.039000000    -3.081000000
C     3.904000000    -0.155000000    -2.398000000
H     3.650000000    -1.123000000    -2.823000000
C     4.508000000    -0.128000000    -1.124000000
O     4.708000000    -1.342000000    -0.444000000
C     3.774000000    -1.616000000     0.623000000
H     2.928000000    -0.916000000     0.563000000
C     3.144000000    -2.995000000     0.527000000
C     3.196000000    -3.819000000     1.680000000
H     3.762000000    -3.612000000     2.585000000
C     2.434000000    -3.390000000    -0.613000000
H     2.428000000    -2.758000000    -1.497000000
C     1.759000000    -4.568000000    -0.617000000
O     1.035000000    -4.993000000    -1.656000000
C     1.820000000    -5.393000000     0.483000000
H     1.214000000    -6.285000000     0.349000000
C     2.537000000    -5.057000000     1.625000000
O     2.423000000    -5.828000000     2.744000000
C     2.306000000    -5.412000000     4.040000000
C     1.213000000    -4.662000000     4.361000000
H     0.507000000    -4.428000000     3.568000000
C     3.275000000    -5.629000000     5.032000000
H     4.228000000    -6.057000000     4.731000000
C     3.018000000    -5.334000000     6.345000000
H     3.685000000    -5.513000000     7.185000000
C     1.798000000    -4.705000000     6.592000000
H     1.450000000    -4.471000000     7.595000000
C     0.822000000    -4.422000000     5.680000000
O    -0.460000000    -3.931000000     6.007000000
C    -1.038000000    -2.840000000     5.462000000
C    -2.389000000    -2.806000000     5.284000000
H    -2.972000000    -3.704000000     5.470000000
C    -2.946000000    -1.650000000     4.651000000
O    -4.223000000    -1.740000000     4.183000000
C    -4.965000000    -0.647000000     3.931000000
C    -5.440000000    -0.443000000     2.665000000
H    -5.276000000    -1.154000000     1.860000000
C    -5.300000000     0.249000000     4.989000000
H    -4.921000000     0.097000000     5.996000000
C    -6.091000000     1.358000000     4.729000000
H    -6.264000000     2.147000000     5.456000000
C    -6.672000000     1.516000000     3.453000000
H    -7.449000000     2.236000000     3.209000000
C    -6.249000000     0.617000000     2.417000000
O    -6.698000000     0.894000000     1.177000000
C    -5.883000000     1.315000000     0.162000000
C    -6.271000000     1.158000000    -1.120000000
H    -7.223000000     0.673000000    -1.322000000
C    -5.465000000     1.608000000    -2.170000000
O    -5.924000000     1.510000000    -3.448000000
C    -5.063000000     1.699000000    -4.572000000
C    -4.367000000     0.590000000    -5.075000000
H    -4.426000000    -0.329000000    -4.498000000
C    -5.038000000     2.917000000    -5.272000000
H    -5.730000000     3.703000000    -4.981000000
C    -4.254000000     3.009000000    -6.400000000
H    -4.251000000     3.919000000    -6.995000000
C    -3.415000000     1.989000000    -6.802000000
H    -2.790000000     2.020000000    -7.692000000
C    -3.471000000     0.774000000    -6.123000000
O    -2.759000000    -0.294000000    -6.554000000
C    -1.520000000    -0.599000000    -6.109000000
C    -0.984000000    -1.901000000    -6.324000000
H    -1.616000000    -2.606000000    -6.859000000
C     0.297000000    -2.270000000    -5.891000000
O     0.750000000    -3.522000000    -6.219000000
C     1.361000000    -4.242000000    -5.253000000
C     2.584000000    -4.821000000    -5.549000000
H     3.028000000    -4.663000000    -6.528000000
C     3.260000000    -5.421000000    -4.504000000
H     4.183000000    -5.927000000    -4.773000000
C     2.749000000    -5.480000000    -3.215000000
H     3.178000000    -6.121000000    -2.450000000
C     1.522000000    -5.044000000    -2.983000000
C     0.777000000    -4.512000000    -4.028000000
H    -0.177000000    -4.078000000    -3.742000000
C    -2.363000000    -1.544000000     0.254000000
H    -2.866000000    -2.161000000     0.995000000
C    -1.188000000    -0.867000000     0.633000000
H    -0.741000000    -0.980000000     1.618000000
C    -0.504000000     0.001000000    -0.296000000
H     0.448000000     0.406000000     0.050000000
C    -1.094000000     0.215000000    -1.573000000
H    -0.694000000     0.881000000    -2.334000000
C    -2.264000000    -0.480000000    -1.879000000
H    -2.805000000    -0.186000000    -2.775000000
C    -2.893000000    -1.395000000    -1.039000000
C    -4.154000000    -2.158000000    -1.439000000
O    -4.590000000    -1.995000000    -2.616000000
O    -4.774000000    -2.870000000    -0.660000000
O    -2.298000000    -7.705000000     0.359000000
H    -3.023000000    -8.321000000     0.259000000
H    -2.656000000    -6.865000000     0.071000000
O    -8.729000000    -5.180000000    -3.953000000
H    -7.899000000    -4.739000000    -3.771000000
H    -8.492000000    -5.906000000    -4.530000000
O    -7.257000000    -1.636000000    -3.151000000
H    -6.301000000    -1.672000000    -3.110000000
H    -7.536000000    -1.621000000    -2.236000000
O   -10.126000000    -2.216000000    -0.147000000
H    -9.174000000    -2.182000000    -0.058000000
H   -10.293000000    -3.022000000    -0.635000000
O    -3.208000000    -5.363000000    -0.404000000
H    -3.791000000    -4.614000000    -0.276000000
H    -2.938000000    -5.302000000    -1.320000000
O    -3.885000000    -4.598000000    -7.015000000
H    -3.645000000    -4.045000000    -6.272000000
H    -4.699000000    -5.024000000    -6.744000000
O    -7.737000000     1.627000000    -5.557000000
H    -7.437000000     0.809000000    -5.161000000
H    -7.084000000     1.823000000    -6.228000000
O    -2.676000000    -5.373000000    -3.214000000
H    -3.052000000    -4.707000000    -3.791000000
H    -2.473000000    -6.106000000    -3.796000000
O    -3.842000000    -8.058000000    -2.410000000
H    -3.399000000    -7.264000000    -2.708000000
H    -4.353000000    -7.777000000    -1.651000000
O    -8.169000000    -2.928000000     2.008000000
H    -8.506000000    -2.488000000     2.788000000
H    -8.170000000    -3.858000000     2.238000000
O    -6.689000000    -7.722000000    -3.876000000
H    -6.375000000    -7.085000000    -3.234000000
H    -6.125000000    -7.592000000    -4.639000000
O    -6.254000000    -5.188000000     0.047000000
H    -6.929000000    -4.961000000     0.686000000
H    -5.836000000    -4.354000000    -0.167000000
O    -7.871000000    -2.121000000    -5.835000000
H    -8.657000000    -1.580000000    -5.767000000
H    -7.605000000    -2.271000000    -4.928000000
O    -6.131000000    -4.528000000    -2.754000000
H    -5.755000000    -3.657000000    -2.632000000
H    -6.423000000    -4.788000000    -1.880000000
O    -6.710000000    -4.618000000    -6.665000000
H    -7.126000000    -4.507000000    -7.520000000
H    -6.747000000    -3.748000000    -6.266000000
O    -2.088000000    -5.907000000     2.600000000
H    -2.339000000    -6.824000000     2.489000000
H    -2.149000000    -5.533000000     1.721000000
O    -7.328000000    -2.390000000    -0.581000000
H    -7.425000000    -2.382000000     0.372000000
H    -6.383000000    -2.436000000    -0.725000000
O    -5.566000000    -7.833000000    -0.180000000
H    -6.378000000    -8.307000000    -0.361000000
H    -5.834000000    -6.916000000    -0.115000000
O    -3.399000000    -3.020000000    -4.710000000
H    -2.596000000    -2.500000000    -4.744000000
H    -3.850000000    -2.712000000    -3.924000000
