215
-1459.48986
C    -2.365000000    -0.762000000     4.289000000
H    -2.793000000     0.130000000     3.837000000
C    -0.955000000    -0.729000000     4.516000000
C    -0.332000000    -1.833000000     5.088000000
H     0.743000000    -1.879000000     5.239000000
C    -0.195000000     0.492000000     4.096000000
O    -0.878000000     1.739000000     4.357000000
H    -0.019000000     0.345000000     3.020000000
O     1.072000000     0.397000000     4.678000000
C     2.181000000     0.740000000     3.924000000
C     2.936000000    -0.331000000     3.540000000
H     2.756000000    -1.345000000     3.888000000
C     4.001000000    -0.132000000     2.683000000
O     4.459000000    -1.166000000     2.032000000
C     4.339000000     1.172000000     2.220000000
C     5.344000000     1.375000000     1.141000000
H     5.826000000     2.352000000     1.208000000
C     4.701000000     1.310000000    -0.274000000
C     4.324000000     2.473000000    -0.878000000
H     4.505000000     3.458000000    -0.457000000
H     6.167000000     0.661000000     1.219000000
C     3.533000000     2.214000000     2.625000000
H     3.593000000     3.210000000     2.193000000
C     2.485000000     1.989000000     3.496000000
C     1.700000000     3.243000000     3.985000000
H     2.358000000     4.115000000     3.953000000
H     1.502000000     3.044000000     5.040000000
C     0.412000000     3.460000000     3.183000000
C     0.402000000     4.422000000     2.210000000
H     1.350000000     4.937000000     2.079000000
C    -0.810000000     2.759000000     3.419000000
C    -1.915000000     2.959000000     2.615000000
H    -2.814000000     2.353000000     2.694000000
C    -1.938000000     3.946000000     1.591000000
O    -2.988000000     4.001000000     0.782000000
C    -2.841000000     3.180000000    -0.497000000
C    -4.100000000     2.361000000    -0.852000000
C    -4.632000000     2.424000000    -2.162000000
H    -4.181000000     3.060000000    -2.919000000
C    -4.777000000     1.647000000     0.136000000
H    -4.411000000     1.660000000     1.159000000
O    -2.354000000     4.089000000    -1.487000000
H    -2.031000000     2.448000000    -0.365000000
C    -0.738000000     4.725000000     1.430000000
C    -0.549000000     5.666000000     0.211000000
H     0.178000000     6.429000000     0.496000000
H    -1.478000000     6.179000000    -0.046000000
C    -0.118000000     4.822000000    -0.999000000
C     1.208000000     4.755000000    -1.375000000
H     1.909000000     5.336000000    -0.780000000
C    -1.057000000     4.115000000    -1.801000000
C    -0.700000000     3.390000000    -2.955000000
H    -1.343000000     2.804000000    -3.606000000
C     0.666000000     3.272000000    -3.196000000
O     1.025000000     2.378000000    -4.195000000
C     1.440000000     1.048000000    -3.849000000
C     0.777000000     0.043000000    -4.695000000
C    -0.548000000     0.256000000    -5.070000000
H    -1.120000000     1.165000000    -4.904000000
C     1.272000000    -1.201000000    -4.864000000
H     2.160000000    -1.567000000    -4.355000000
O     2.893000000     1.105000000    -3.934000000
H     1.067000000     0.914000000    -2.823000000
C     1.645000000     3.955000000    -2.424000000
C     3.108000000     3.833000000    -2.678000000
H     3.637000000     4.727000000    -2.340000000
H     3.259000000     3.798000000    -3.759000000
C     3.664000000     2.503000000    -2.098000000
C     3.541000000     1.253000000    -2.759000000
C     3.964000000     0.049000000    -2.212000000
H     3.754000000    -0.881000000    -2.734000000
C     4.473000000     0.074000000    -0.925000000
O     4.759000000    -1.083000000    -0.342000000
C     3.891000000    -1.478000000     0.732000000
H     2.947000000    -0.925000000     0.619000000
C     3.546000000    -2.983000000     0.718000000
C     3.499000000    -3.759000000     1.892000000
H     3.684000000    -3.319000000     2.869000000
C     3.291000000    -3.575000000    -0.484000000
H     3.325000000    -3.076000000    -1.449000000
C     2.868000000    -4.893000000    -0.554000000
O     2.675000000    -5.611000000    -1.759000000
C     2.689000000    -5.662000000     0.622000000
H     2.449000000    -6.721000000     0.662000000
C     3.024000000    -5.078000000     1.845000000
O     2.879000000    -5.895000000     2.978000000
C     2.396000000    -5.291000000     4.167000000
C     1.086000000    -4.931000000     4.403000000
H     0.342000000    -5.092000000     3.627000000
C     3.333000000    -5.056000000     5.169000000
H     4.368000000    -5.358000000     5.028000000
C     2.856000000    -4.712000000     6.455000000
H     3.591000000    -4.495000000     7.226000000
C     1.553000000    -4.541000000     6.730000000
H     1.296000000    -4.113000000     7.695000000
C     0.639000000    -4.612000000     5.679000000
O    -0.623000000    -4.140000000     5.841000000
C    -1.108000000    -3.012000000     5.251000000
C    -2.498000000    -3.033000000     5.003000000
H    -3.031000000    -3.974000000     5.113000000
C    -3.172000000    -1.857000000     4.600000000
O    -4.562000000    -1.894000000     4.442000000
C    -5.284000000    -0.846000000     3.971000000
C    -5.474000000    -0.873000000     2.611000000
H    -5.011000000    -1.644000000     2.000000000
C    -5.773000000     0.172000000     4.797000000
H    -5.609000000     0.091000000     5.869000000
C    -6.405000000     1.263000000     4.231000000
H    -6.690000000     2.122000000     4.834000000
C    -6.530000000     1.227000000     2.834000000
H    -7.028000000     2.061000000     2.347000000
C    -6.224000000     0.092000000     2.014000000
O    -6.490000000     0.107000000     0.693000000
C    -5.917000000     0.898000000    -0.199000000
C    -6.441000000     0.992000000    -1.450000000
H    -7.345000000     0.485000000    -1.780000000
C    -5.807000000     1.696000000    -2.476000000
O    -6.279000000     1.576000000    -3.748000000
C    -5.387000000     1.575000000    -4.769000000
C    -4.410000000     0.545000000    -4.929000000
H    -4.381000000    -0.294000000    -4.240000000
C    -5.418000000     2.571000000    -5.767000000
H    -6.231000000     3.268000000    -5.578000000
C    -4.506000000     2.552000000    -6.845000000
H    -4.460000000     3.345000000    -7.587000000
C    -3.569000000     1.499000000    -6.951000000
H    -2.833000000     1.442000000    -7.749000000
C    -3.524000000     0.516000000    -6.007000000
O    -2.623000000    -0.505000000    -6.209000000
C    -1.274000000    -0.730000000    -5.750000000
C    -0.650000000    -1.941000000    -6.049000000
H    -1.176000000    -2.725000000    -6.588000000
C     0.613000000    -2.165000000    -5.622000000
O     1.103000000    -3.457000000    -5.813000000
C     2.075000000    -3.922000000    -5.002000000
C     3.305000000    -4.162000000    -5.599000000
H     3.519000000    -3.991000000    -6.651000000
C     4.377000000    -4.730000000    -4.840000000
H     5.311000000    -4.884000000    -5.374000000
C     4.220000000    -5.040000000    -3.506000000
H     5.059000000    -5.550000000    -3.039000000
C     2.907000000    -4.979000000    -2.977000000
C     1.935000000    -4.269000000    -3.653000000
H     0.943000000    -4.109000000    -3.240000000
C    -1.938000000    -2.056000000     0.555000000
H    -2.185000000    -2.861000000     1.242000000
C    -0.773000000    -1.277000000     0.779000000
H    -0.057000000    -1.565000000     1.545000000
C    -0.591000000    -0.241000000    -0.107000000
H     0.384000000     0.209000000    -0.059000000
C    -1.429000000     0.131000000    -1.105000000
H    -1.100000000     0.906000000    -1.792000000
C    -2.625000000    -0.578000000    -1.221000000
H    -3.330000000    -0.270000000    -1.990000000
C    -2.880000000    -1.662000000    -0.436000000
C    -4.133000000    -2.469000000    -0.570000000
O    -4.946000000    -2.141000000    -1.448000000
O    -4.443000000    -3.350000000     0.236000000
O    -0.369000000    -5.769000000    -0.676000000
H    -0.163000000    -4.933000000    -0.260000000
H    -1.325000000    -5.805000000    -0.681000000
O    -9.057000000    -1.307000000     2.983000000
H    -8.485000000    -0.542000000     3.048000000
H    -9.383000000    -1.438000000     3.874000000
O    -6.204000000    -6.123000000    -2.850000000
H    -5.277000000    -6.336000000    -2.752000000
H    -6.567000000    -6.854000000    -3.350000000
O    -5.770000000    -3.381000000    -3.804000000
H    -5.678000000    -2.858000000    -3.008000000
H    -6.254000000    -4.159000000    -3.525000000
O    -5.713000000    -7.152000000     2.291000000
H    -5.911000000    -6.230000000     2.123000000
H    -4.952000000    -7.337000000     1.740000000
O    -3.146000000    -5.518000000    -0.543000000
H    -3.625000000    -4.714000000    -0.341000000
H    -3.308000000    -5.665000000    -1.475000000
O    -3.327000000    -5.923000000    -3.282000000
H    -2.482000000    -6.365000000    -3.195000000
H    -3.118000000    -5.086000000    -3.696000000
O    -6.612000000    -4.451000000     5.032000000
H    -6.324000000    -4.786000000     5.881000000
H    -5.891000000    -4.656000000     4.436000000
O    -8.438000000    -6.599000000     0.966000000
H    -8.987000000    -6.330000000     1.702000000
H    -7.848000000    -5.858000000     0.824000000
O    -4.949000000    -4.331000000     2.838000000
H    -5.556000000    -3.649000000     3.124000000
H    -4.705000000    -4.075000000     1.948000000
O    -9.287000000    -1.579000000    -3.269000000
H   -10.225000000    -1.704000000    -3.126000000
H    -8.885000000    -1.808000000    -2.432000000
O    -6.007000000    -2.216000000    -6.547000000
H    -5.730000000    -2.194000000    -5.631000000
H    -6.747000000    -2.823000000    -6.559000000
O    -9.923000000    -0.565000000     0.543000000
H    -9.316000000    -0.743000000    -0.176000000
H    -9.416000000    -0.747000000     1.334000000
O    -0.363000000    -6.617000000    -3.335000000
H    -0.270000000    -6.301000000    -2.436000000
H     0.439000000    -7.114000000    -3.498000000
O    -6.579000000    -4.912000000     0.124000000
H    -5.842000000    -4.304000000     0.190000000
H    -6.380000000    -5.445000000    -0.646000000
O    -2.682000000    -6.063000000     1.817000000
H    -2.813000000    -5.750000000     0.922000000
H    -3.512000000    -5.882000000     2.258000000
O    -7.803000000    -2.445000000    -0.818000000
H    -7.672000000    -3.342000000    -0.512000000
H    -6.929000000    -2.148000000    -1.072000000
O    -4.576000000    -8.327000000    -1.148000000
H    -3.756000000    -7.856000000    -1.301000000
H    -4.336000000    -9.039000000    -0.555000000
O    -3.016000000    -3.499000000    -4.426000000
H    -2.348000000    -2.815000000    -4.470000000
H    -3.847000000    -3.026000000    -4.484000000
