215
-1454.71114
C    -2.269000000    -0.883000000     4.533000000
H    -2.786000000     0.066000000     4.418000000
C    -0.846000000    -0.951000000     4.512000000
C    -0.197000000    -2.178000000     4.872000000
H     0.878000000    -2.332000000     4.843000000
C     0.067000000     0.201000000     4.127000000
O    -0.475000000     1.459000000     4.531000000
H     0.208000000     0.080000000     3.043000000
O     1.363000000     0.055000000     4.750000000
C     2.422000000     0.555000000     3.953000000
C     3.282000000    -0.444000000     3.486000000
H     3.023000000    -1.453000000     3.795000000
C     4.216000000    -0.184000000     2.468000000
O     4.524000000    -1.254000000     1.782000000
C     4.535000000     1.138000000     2.095000000
C     5.424000000     1.499000000     0.889000000
H     5.690000000     2.551000000     1.014000000
C     4.711000000     1.437000000    -0.420000000
C     4.102000000     2.613000000    -0.880000000
H     4.187000000     3.550000000    -0.336000000
H     6.326000000     0.883000000     0.876000000
C     3.802000000     2.127000000     2.779000000
H     3.847000000     3.163000000     2.452000000
C     2.749000000     1.846000000     3.677000000
C     1.882000000     2.985000000     4.124000000
H     2.452000000     3.915000000     4.067000000
H     1.597000000     2.786000000     5.159000000
C     0.618000000     3.151000000     3.309000000
C     0.539000000     4.069000000     2.286000000
H     1.419000000     4.657000000     2.034000000
C    -0.524000000     2.417000000     3.584000000
C    -1.745000000     2.574000000     2.945000000
H    -2.691000000     2.089000000     3.170000000
C    -1.817000000     3.517000000     1.907000000
O    -2.875000000     3.606000000     1.031000000
C    -2.745000000     2.943000000    -0.221000000
C    -4.056000000     2.239000000    -0.497000000
C    -4.638000000     2.365000000    -1.754000000
H    -4.150000000     2.953000000    -2.527000000
C    -4.569000000     1.352000000     0.416000000
H    -4.032000000     1.216000000     1.352000000
O    -2.569000000     4.058000000    -1.168000000
H    -1.916000000     2.240000000    -0.389000000
C    -0.690000000     4.264000000     1.610000000
C    -0.735000000     5.433000000     0.580000000
H    -0.142000000     6.317000000     0.820000000
H    -1.783000000     5.740000000     0.609000000
C    -0.314000000     4.840000000    -0.799000000
C     1.054000000     4.882000000    -1.208000000
H     1.767000000     5.339000000    -0.527000000
C    -1.278000000     4.266000000    -1.577000000
C    -0.989000000     3.736000000    -2.821000000
H    -1.782000000     3.261000000    -3.393000000
C     0.386000000     3.732000000    -3.205000000
O     0.732000000     2.868000000    -4.209000000
C     1.112000000     1.473000000    -3.772000000
C     0.353000000     0.354000000    -4.539000000
C    -0.803000000     0.608000000    -5.126000000
H    -1.215000000     1.612000000    -5.175000000
C     0.802000000    -0.977000000    -4.512000000
H     1.714000000    -1.204000000    -3.966000000
O     2.505000000     1.334000000    -3.937000000
H     0.930000000     1.479000000    -2.688000000
C     1.421000000     4.243000000    -2.376000000
C     2.861000000     3.954000000    -2.719000000
H     3.445000000     4.793000000    -2.335000000
H     2.952000000     4.037000000    -3.804000000
C     3.399000000     2.562000000    -2.116000000
C     3.263000000     1.381000000    -2.791000000
C     3.730000000     0.190000000    -2.364000000
H     3.447000000    -0.711000000    -2.902000000
C     4.412000000     0.207000000    -1.154000000
O     4.617000000    -1.045000000    -0.585000000
C     3.861000000    -1.459000000     0.506000000
H     2.921000000    -0.887000000     0.487000000
C     3.525000000    -2.950000000     0.374000000
C     3.128000000    -3.674000000     1.459000000
H     3.014000000    -3.318000000     2.480000000
C     3.647000000    -3.508000000    -0.892000000
H     4.034000000    -2.947000000    -1.739000000
C     3.329000000    -4.842000000    -1.127000000
O     3.509000000    -5.393000000    -2.279000000
C     2.862000000    -5.629000000    -0.061000000
H     2.612000000    -6.686000000    -0.112000000
C     2.908000000    -5.114000000     1.261000000
O     2.637000000    -5.889000000     2.327000000
C     2.343000000    -5.599000000     3.625000000
C     1.098000000    -5.057000000     3.910000000
H     0.344000000    -4.744000000     3.192000000
C     3.210000000    -6.038000000     4.593000000
H     4.154000000    -6.516000000     4.343000000
C     2.852000000    -5.881000000     5.924000000
H     3.508000000    -6.156000000     6.746000000
C     1.618000000    -5.278000000     6.234000000
H     1.303000000    -5.090000000     7.257000000
C     0.701000000    -4.959000000     5.255000000
O    -0.533000000    -4.478000000     5.622000000
C    -1.068000000    -3.222000000     5.176000000
C    -2.503000000    -3.078000000     5.286000000
H    -3.083000000    -3.949000000     5.582000000
C    -3.092000000    -1.960000000     4.868000000
O    -4.477000000    -1.937000000     4.987000000
C    -5.268000000    -1.055000000     4.403000000
C    -5.559000000    -1.106000000     3.038000000
H    -5.164000000    -1.929000000     2.448000000
C    -5.658000000     0.165000000     5.067000000
H    -5.558000000     0.249000000     6.146000000
C    -6.385000000     1.209000000     4.415000000
H    -6.708000000     2.091000000     4.962000000
C    -6.596000000     1.081000000     3.016000000
H    -7.028000000     1.871000000     2.407000000
C    -6.140000000    -0.053000000     2.367000000
O    -6.404000000    -0.175000000     1.002000000
C    -5.761000000     0.631000000     0.082000000
C    -6.288000000     0.690000000    -1.263000000
H    -7.088000000     0.016000000    -1.559000000
C    -5.650000000     1.470000000    -2.200000000
O    -6.105000000     1.437000000    -3.473000000
C    -5.256000000     1.680000000    -4.535000000
C    -4.392000000     0.682000000    -5.006000000
H    -4.393000000    -0.361000000    -4.700000000
C    -5.245000000     2.984000000    -5.108000000
H    -5.889000000     3.754000000    -4.692000000
C    -4.460000000     3.179000000    -6.274000000
H    -4.473000000     4.165000000    -6.732000000
C    -3.588000000     2.197000000    -6.716000000
H    -3.097000000     2.309000000    -7.679000000
C    -3.513000000     0.975000000    -6.023000000
O    -2.722000000     0.029000000    -6.496000000
C    -1.523000000    -0.323000000    -5.900000000
C    -0.977000000    -1.634000000    -5.988000000
H    -1.473000000    -2.428000000    -6.541000000
C     0.189000000    -1.968000000    -5.273000000
O     0.788000000    -3.238000000    -5.467000000
C     2.036000000    -3.598000000    -5.085000000
C     3.138000000    -3.371000000    -5.899000000
H     2.923000000    -2.889000000    -6.849000000
C     4.381000000    -3.822000000    -5.483000000
H     5.282000000    -3.561000000    -6.032000000
C     4.549000000    -4.549000000    -4.288000000
H     5.490000000    -4.828000000    -3.820000000
C     3.432000000    -4.701000000    -3.468000000
C     2.216000000    -4.258000000    -3.933000000
H     1.426000000    -4.430000000    -3.207000000
C    -2.579000000    -2.048000000     0.173000000
H    -3.134000000    -2.812000000     0.711000000
C    -1.357000000    -1.525000000     0.645000000
H    -0.924000000    -1.872000000     1.579000000
C    -0.710000000    -0.592000000    -0.154000000
H     0.202000000    -0.242000000     0.369000000
C    -1.255000000    -0.082000000    -1.337000000
H    -0.772000000     0.742000000    -1.856000000
C    -2.494000000    -0.576000000    -1.760000000
H    -2.937000000    -0.278000000    -2.707000000
C    -3.119000000    -1.550000000    -1.025000000
C    -4.406000000    -2.161000000    -1.564000000
O    -4.878000000    -1.726000000    -2.545000000
O    -4.941000000    -3.094000000    -0.965000000
O    -1.649000000    -5.890000000    -0.597000000
H    -1.097000000    -6.670000000    -0.655000000
H    -1.502000000    -5.431000000    -1.424000000
O    -6.834000000    -3.385000000    -6.473000000
H    -6.883000000    -2.975000000    -5.610000000
H    -6.315000000    -4.177000000    -6.334000000
O    -7.106000000    -1.886000000    -4.100000000
H    -6.408000000    -1.627000000    -3.499000000
H    -7.674000000    -2.453000000    -3.578000000
O    -9.146000000    -3.593000000    -2.703000000
H    -8.746000000    -3.337000000    -1.872000000
H    -8.961000000    -4.529000000    -2.780000000
O    -4.508000000    -5.634000000    -0.855000000
H    -4.629000000    -4.730000000    -1.146000000
H    -3.567000000    -5.712000000    -0.699000000
O    -8.417000000    -3.297000000     1.662000000
H    -9.284000000    -3.528000000     1.329000000
H    -8.561000000    -3.101000000     2.588000000
O    -3.705000000    -3.518000000    -7.113000000
H    -3.612000000    -3.006000000    -6.309000000
H    -4.284000000    -2.993000000    -7.665000000
O    -5.906000000    -8.159000000    -0.958000000
H    -5.659000000    -8.054000000    -1.877000000
H    -5.632000000    -7.342000000    -0.542000000
O    -1.411000000    -4.252000000    -2.977000000
H    -2.151000000    -4.205000000    -3.581000000
H    -1.474000000    -3.450000000    -2.458000000
O    -4.651000000    -7.069000000    -3.294000000
H    -4.951000000    -6.599000000    -4.072000000
H    -4.746000000    -6.437000000    -2.581000000
O    -7.570000000    -5.802000000     2.421000000
H    -8.026000000    -5.114000000     1.936000000
H    -8.034000000    -6.606000000     2.188000000
O    -8.262000000    -6.207000000    -2.799000000
H    -8.565000000    -6.833000000    -2.141000000
H    -8.094000000    -6.740000000    -3.577000000
O    -5.016000000    -4.811000000     2.302000000
H    -5.785000000    -5.299000000     2.597000000
H    -5.088000000    -4.803000000     1.348000000
O    -8.129000000     0.266000000    -5.351000000
H    -7.318000000     0.428000000    -5.832000000
H    -7.949000000    -0.522000000    -4.837000000
O    -9.596000000    -0.499000000     0.012000000
H    -8.711000000    -0.723000000     0.300000000
H   -10.075000000    -0.326000000     0.822000000
O    -5.867000000    -4.596000000    -3.732000000
H    -5.831000000    -3.971000000    -3.008000000
H    -6.559000000    -5.209000000    -3.485000000
O    -2.222000000    -5.246000000     1.939000000
H    -2.140000000    -5.564000000     1.039000000
H    -3.064000000    -4.793000000     1.957000000
O    -7.560000000    -2.575000000    -0.793000000
H    -7.770000000    -2.747000000     0.125000000
H    -6.604000000    -2.604000000    -0.829000000
O    -3.562000000    -3.417000000    -4.275000000
H    -3.813000000    -2.528000000    -4.025000000
H    -4.391000000    -3.859000000    -4.456000000
