215
-1484.79147
C    -1.996000000    -0.841000000     4.836000000
H    -2.703000000    -0.315000000     4.198000000
C    -0.729000000    -0.372000000     4.884000000
C     0.272000000    -1.064000000     5.564000000
H     1.303000000    -0.732000000     5.472000000
C    -0.383000000     0.939000000     4.082000000
O    -1.570000000     1.756000000     4.086000000
H    -0.195000000     0.600000000     3.053000000
O     0.731000000     1.636000000     4.587000000
C     1.608000000     2.131000000     3.691000000
C     2.613000000     1.320000000     3.217000000
H     2.696000000     0.285000000     3.539000000
C     3.531000000     1.802000000     2.272000000
O     4.481000000     0.935000000     1.796000000
C     3.385000000     3.080000000     1.710000000
C     4.277000000     3.527000000     0.520000000
H     4.462000000     4.603000000     0.511000000
C     3.768000000     3.013000000    -0.843000000
C     2.935000000     3.879000000    -1.602000000
H     2.702000000     4.817000000    -1.106000000
H     5.264000000     3.158000000     0.807000000
C     2.327000000     3.856000000     2.209000000
H     2.120000000     4.795000000     1.703000000
C     1.414000000     3.424000000     3.185000000
C     0.171000000     4.243000000     3.515000000
H     0.397000000     5.310000000     3.458000000
H    -0.061000000     4.021000000     4.559000000
C    -0.949000000     3.748000000     2.644000000
C    -1.319000000     4.527000000     1.538000000
H    -0.760000000     5.444000000     1.370000000
C    -1.817000000     2.639000000     3.028000000
C    -2.850000000     2.360000000     2.224000000
H    -3.535000000     1.559000000     2.488000000
C    -3.276000000     3.112000000     1.153000000
O    -4.245000000     2.608000000     0.371000000
C    -3.881000000     1.825000000    -0.809000000
C    -4.789000000     0.601000000    -0.904000000
C    -5.046000000    -0.092000000    -2.105000000
H    -4.615000000     0.385000000    -2.982000000
C    -5.280000000     0.104000000     0.272000000
H    -5.139000000     0.723000000     1.154000000
O    -3.880000000     2.624000000    -1.990000000
H    -2.876000000     1.399000000    -0.671000000
C    -2.477000000     4.200000000     0.787000000
C    -2.719000000     4.883000000    -0.566000000
H    -2.385000000     5.920000000    -0.643000000
H    -3.805000000     4.934000000    -0.676000000
C    -2.014000000     4.114000000    -1.698000000
C    -0.719000000     4.531000000    -2.073000000
H    -0.166000000     5.248000000    -1.472000000
C    -2.677000000     3.136000000    -2.458000000
C    -2.004000000     2.489000000    -3.469000000
H    -2.484000000     1.602000000    -3.874000000
C    -0.683000000     2.752000000    -3.733000000
O    -0.005000000     1.964000000    -4.610000000
C     0.896000000     1.029000000    -4.182000000
C     0.713000000    -0.279000000    -4.868000000
C    -0.569000000    -0.709000000    -5.274000000
H    -1.445000000    -0.065000000    -5.276000000
C     1.775000000    -1.186000000    -4.897000000
H     2.780000000    -0.887000000    -4.612000000
O     2.202000000     1.629000000    -4.390000000
H     0.807000000     0.843000000    -3.101000000
C    -0.025000000     3.885000000    -3.151000000
C     1.410000000     4.304000000    -3.499000000
H     1.507000000     5.350000000    -3.202000000
H     1.683000000     4.266000000    -4.555000000
C     2.414000000     3.428000000    -2.795000000
C     2.875000000     2.170000000    -3.286000000
C     3.640000000     1.302000000    -2.568000000
H     3.886000000     0.301000000    -2.913000000
C     4.120000000     1.746000000    -1.313000000
O     4.917000000     0.955000000    -0.521000000
C     4.263000000     0.281000000     0.516000000
H     3.219000000     0.171000000     0.187000000
C     4.661000000    -1.164000000     0.720000000
C     4.502000000    -1.842000000     1.928000000
H     4.205000000    -1.211000000     2.762000000
C     4.960000000    -1.988000000    -0.396000000
H     5.070000000    -1.468000000    -1.344000000
C     5.140000000    -3.384000000    -0.264000000
O     5.415000000    -4.197000000    -1.350000000
C     4.901000000    -4.020000000     0.959000000
H     5.113000000    -5.085000000     0.984000000
C     4.577000000    -3.229000000     2.103000000
O     4.514000000    -3.893000000     3.314000000
C     4.018000000    -3.296000000     4.494000000
C     2.717000000    -3.458000000     4.942000000
H     2.011000000    -3.924000000     4.260000000
C     4.994000000    -2.784000000     5.368000000
H     6.007000000    -2.733000000     4.978000000
C     4.660000000    -2.387000000     6.670000000
H     5.434000000    -1.972000000     7.311000000
C     3.296000000    -2.359000000     7.052000000
H     2.858000000    -1.968000000     7.967000000
C     2.317000000    -2.947000000     6.207000000
O     1.015000000    -3.057000000     6.610000000
C    -0.022000000    -2.248000000     6.152000000
C    -1.309000000    -2.861000000     5.991000000
H    -1.550000000    -3.863000000     6.335000000
C    -2.262000000    -2.131000000     5.280000000
O    -3.449000000    -2.743000000     4.901000000
C    -4.550000000    -2.050000000     4.514000000
C    -4.922000000    -1.920000000     3.157000000
H    -4.298000000    -2.254000000     2.331000000
C    -5.511000000    -1.726000000     5.481000000
H    -5.199000000    -1.789000000     6.520000000
C    -6.800000000    -1.261000000     5.211000000
H    -7.583000000    -1.069000000     5.940000000
C    -7.158000000    -1.175000000     3.820000000
H    -8.163000000    -0.951000000     3.473000000
C    -6.225000000    -1.560000000     2.823000000
O    -6.674000000    -1.593000000     1.493000000
C    -6.031000000    -1.088000000     0.310000000
C    -6.208000000    -1.762000000    -0.931000000
H    -6.793000000    -2.678000000    -0.963000000
C    -5.621000000    -1.300000000    -2.115000000
O    -5.975000000    -1.952000000    -3.320000000
C    -5.259000000    -1.721000000    -4.547000000
C    -3.896000000    -1.989000000    -4.545000000
H    -3.393000000    -2.325000000    -3.643000000
C    -5.895000000    -1.166000000    -5.672000000
H    -6.953000000    -0.953000000    -5.544000000
C    -5.200000000    -1.000000000    -6.927000000
H    -5.791000000    -0.704000000    -7.791000000
C    -3.845000000    -1.379000000    -6.880000000
H    -3.296000000    -1.315000000    -7.816000000
C    -3.195000000    -1.885000000    -5.811000000
O    -1.991000000    -2.502000000    -6.020000000
C    -0.757000000    -2.030000000    -5.707000000
C     0.251000000    -2.933000000    -5.623000000
H     0.081000000    -3.965000000    -5.918000000
C     1.569000000    -2.509000000    -5.244000000
O     2.507000000    -3.475000000    -5.105000000
C     3.726000000    -3.339000000    -4.492000000
C     4.798000000    -2.961000000    -5.290000000
H     4.535000000    -2.782000000    -6.330000000
C     6.063000000    -3.061000000    -4.840000000
H     6.936000000    -2.905000000    -5.468000000
C     6.236000000    -3.535000000    -3.540000000
H     7.198000000    -3.510000000    -3.035000000
C     5.127000000    -3.808000000    -2.678000000
C     3.865000000    -3.672000000    -3.145000000
H     2.989000000    -3.896000000    -2.541000000
C     1.284000000    -2.954000000     0.360000000
H     1.652000000    -3.457000000     1.251000000
C     0.946000000    -1.597000000     0.453000000
H     1.208000000    -1.088000000     1.376000000
C     0.234000000    -0.983000000    -0.589000000
H    -0.040000000     0.092000000    -0.553000000
C     0.023000000    -1.702000000    -1.757000000
H    -0.563000000    -1.246000000    -2.551000000
C     0.369000000    -3.077000000    -1.854000000
H     0.170000000    -3.643000000    -2.760000000
C     1.069000000    -3.662000000    -0.780000000
C     1.489000000    -5.123000000    -0.810000000
O     1.106000000    -5.762000000    -1.723000000
O     2.082000000    -5.612000000     0.135000000
O     2.836000000    -9.588000000    -1.680000000
H     3.065000000    -8.775000000    -2.131000000
H     3.105000000    -9.442000000    -0.773000000
O     0.237000000    -6.537000000    -6.829000000
H    -0.064000000    -6.223000000    -5.977000000
H    -0.514000000    -7.009000000    -7.190000000
O     3.448000000    -7.037000000    -2.898000000
H     3.507000000    -7.101000000    -3.851000000
H     2.741000000    -6.410000000    -2.743000000
O    -0.219000000    -5.669000000    -4.207000000
H    -1.131000000    -5.923000000    -4.063000000
H     0.174000000    -5.682000000    -3.334000000
O    -1.611000000    -9.566000000    -4.130000000
H    -1.189000000   -10.155000000    -4.755000000
H    -0.968000000    -9.463000000    -3.427000000
O     1.771000000    -8.583000000     3.449000000
H     1.762000000    -9.074000000     2.627000000
H     1.852000000    -7.668000000     3.181000000
O    -1.941000000    -9.484000000     1.298000000
H    -1.224000000    -8.915000000     1.577000000
H    -1.538000000   -10.091000000     0.677000000
O     7.063000000    -6.839000000    -1.739000000
H     6.586000000    -7.669000000    -1.764000000
H     6.381000000    -6.174000000    -1.645000000
O    -3.265000000    -6.945000000     0.175000000
H    -2.828000000    -7.608000000     0.709000000
H    -4.071000000    -7.367000000    -0.120000000
O     2.903000000    -6.937000000    -5.776000000
H     1.991000000    -6.968000000    -6.067000000
H     3.375000000    -6.545000000    -6.511000000
O     5.681000000    -9.402000000    -0.036000000
H     5.813000000    -9.750000000     0.846000000
H     5.233000000    -8.567000000     0.101000000
O     0.717000000   -10.430000000    -3.200000000
H     1.284000000    -9.778000000    -2.790000000
H     1.310000000   -10.964000000    -3.729000000
O    -0.338000000    -6.962000000     1.190000000
H     0.315000000    -6.413000000     0.756000000
H    -0.852000000    -6.350000000     1.717000000
O     2.416000000    -6.037000000     2.681000000
H     2.151000000    -5.901000000     1.771000000
H     3.285000000    -5.640000000     2.739000000
O     4.036000000    -7.312000000    -0.375000000
H     3.907000000    -7.248000000    -1.321000000
H     3.315000000    -6.806000000     0.000000000
O    -0.592000000    -7.836000000    -1.339000000
H    -0.696000000    -7.823000000    -0.388000000
H     0.178000000    -7.292000000    -1.503000000
O    -1.992000000    -5.211000000     2.933000000
H    -2.086000000    -4.996000000     2.005000000
H    -2.370000000    -4.461000000     3.393000000
O    -2.792000000    -6.779000000    -3.074000000
H    -2.489000000    -6.882000000    -2.172000000
H    -2.497000000    -7.573000000    -3.518000000
O    -2.512000000    -4.365000000     0.348000000
H    -2.715000000    -5.249000000     0.044000000
H    -2.132000000    -3.930000000    -0.415000000
