215
-1450.78618
C    -2.312000000    -1.348000000     4.605000000
H    -2.946000000    -0.465000000     4.610000000
C    -0.915000000    -1.250000000     4.672000000
C    -0.156000000    -2.456000000     4.806000000
H     0.929000000    -2.396000000     4.828000000
C    -0.273000000     0.108000000     4.529000000
O    -1.126000000     1.262000000     4.864000000
H    -0.033000000     0.325000000     3.478000000
O     1.067000000     0.186000000     5.162000000
C     2.107000000     0.688000000     4.322000000
C     3.003000000    -0.203000000     3.807000000
H     3.092000000    -1.226000000     4.163000000
C     3.902000000     0.271000000     2.773000000
O     4.647000000    -0.668000000     2.129000000
C     3.907000000     1.599000000     2.364000000
C     4.895000000     2.212000000     1.377000000
H     5.048000000     3.247000000     1.689000000
C     4.329000000     2.122000000    -0.061000000
C     3.616000000     3.161000000    -0.486000000
H     3.528000000     4.102000000     0.053000000
H     5.885000000     1.796000000     1.574000000
C     3.006000000     2.442000000     2.916000000
H     2.974000000     3.487000000     2.619000000
C     2.127000000     2.031000000     3.900000000
C     1.151000000     3.015000000     4.479000000
H     1.581000000     4.019000000     4.470000000
H     0.938000000     2.823000000     5.532000000
C    -0.144000000     3.121000000     3.703000000
C    -0.255000000     4.041000000     2.670000000
H     0.516000000     4.800000000     2.570000000
C    -1.189000000     2.213000000     3.900000000
C    -2.325000000     2.152000000     3.012000000
H    -2.996000000     1.303000000     3.123000000
C    -2.393000000     3.138000000     1.994000000
O    -3.482000000     3.081000000     1.164000000
C    -3.270000000     2.566000000    -0.161000000
C    -4.443000000     1.695000000    -0.605000000
C    -4.822000000     1.624000000    -1.942000000
H    -4.387000000     2.277000000    -2.695000000
C    -5.035000000     0.962000000     0.407000000
H    -4.668000000     0.918000000     1.429000000
O    -3.060000000     3.646000000    -1.085000000
H    -2.345000000     1.981000000    -0.269000000
C    -1.376000000     4.102000000     1.825000000
C    -1.469000000     5.263000000     0.736000000
H    -0.927000000     6.184000000     0.961000000
H    -2.476000000     5.554000000     0.429000000
C    -0.903000000     4.609000000    -0.571000000
C     0.427000000     4.803000000    -0.851000000
H     0.934000000     5.366000000    -0.072000000
C    -1.767000000     3.926000000    -1.433000000
C    -1.268000000     3.443000000    -2.602000000
H    -1.906000000     2.913000000    -3.305000000
C     0.138000000     3.626000000    -2.974000000
O     0.545000000     2.972000000    -4.095000000
C     1.201000000     1.718000000    -3.886000000
C     0.691000000     0.664000000    -4.784000000
C    -0.705000000     0.522000000    -5.071000000
H    -1.418000000     1.283000000    -4.764000000
C     1.546000000    -0.344000000    -5.320000000
H     2.613000000    -0.337000000    -5.115000000
O     2.676000000     1.924000000    -3.836000000
H     0.852000000     1.373000000    -2.902000000
C     0.978000000     4.255000000    -2.035000000
C     2.458000000     4.439000000    -2.340000000
H     2.852000000     5.405000000    -2.017000000
H     2.505000000     4.494000000    -3.430000000
C     3.144000000     3.159000000    -1.830000000
C     3.287000000     1.991000000    -2.575000000
C     3.941000000     0.882000000    -2.112000000
H     3.971000000    -0.001000000    -2.746000000
C     4.521000000     0.956000000    -0.811000000
O     5.047000000    -0.125000000    -0.184000000
C     4.210000000    -0.894000000     0.766000000
H     3.170000000    -0.537000000     0.741000000
C     4.197000000    -2.366000000     0.481000000
C     4.231000000    -3.380000000     1.412000000
H     4.395000000    -3.165000000     2.464000000
C     4.048000000    -2.793000000    -0.811000000
H     4.036000000    -2.066000000    -1.619000000
C     3.740000000    -4.113000000    -1.223000000
O     3.564000000    -4.567000000    -2.582000000
C     3.676000000    -5.038000000    -0.210000000
H     3.571000000    -6.099000000    -0.422000000
C     4.053000000    -4.684000000     1.097000000
O     3.953000000    -5.612000000     2.059000000
C     3.276000000    -5.302000000     3.256000000
C     1.862000000    -5.176000000     3.359000000
H     1.129000000    -5.353000000     2.576000000
C     4.066000000    -5.187000000     4.445000000
H     5.152000000    -5.150000000     4.427000000
C     3.484000000    -4.862000000     5.695000000
H     4.029000000    -4.842000000     6.635000000
C     2.065000000    -4.839000000     5.782000000
H     1.544000000    -4.655000000     6.718000000
C     1.286000000    -4.948000000     4.614000000
O    -0.106000000    -4.843000000     4.753000000
C    -0.823000000    -3.704000000     4.797000000
C    -2.184000000    -3.791000000     4.905000000
H    -2.623000000    -4.783000000     4.974000000
C    -2.955000000    -2.576000000     4.740000000
O    -4.337000000    -2.693000000     4.720000000
C    -5.145000000    -1.842000000     4.082000000
C    -5.321000000    -1.799000000     2.743000000
H    -4.674000000    -2.338000000     2.056000000
C    -5.990000000    -1.063000000     4.886000000
H    -5.944000000    -1.081000000     5.972000000
C    -6.899000000    -0.168000000     4.295000000
H    -7.559000000     0.490000000     4.855000000
C    -6.962000000    -0.072000000     2.944000000
H    -7.683000000     0.630000000     2.532000000
C    -6.272000000    -0.994000000     2.196000000
O    -6.509000000    -1.010000000     0.825000000
C    -6.078000000    -0.003000000    -0.013000000
C    -6.447000000    -0.082000000    -1.317000000
H    -7.246000000    -0.724000000    -1.678000000
C    -5.800000000     0.713000000    -2.267000000
O    -6.230000000     0.650000000    -3.606000000
C    -5.389000000     0.880000000    -4.590000000
C    -4.346000000     0.030000000    -4.837000000
H    -4.257000000    -0.834000000    -4.182000000
C    -5.479000000     2.060000000    -5.292000000
H    -6.255000000     2.768000000    -5.014000000
C    -4.593000000     2.374000000    -6.313000000
H    -4.622000000     3.331000000    -6.828000000
C    -3.583000000     1.491000000    -6.613000000
H    -2.820000000     1.705000000    -7.356000000
C    -3.490000000     0.300000000    -5.865000000
O    -2.526000000    -0.603000000    -6.204000000
C    -1.171000000    -0.499000000    -5.893000000
C    -0.308000000    -1.454000000    -6.407000000
H    -0.662000000    -2.219000000    -7.093000000
C     1.033000000    -1.410000000    -6.070000000
O     1.772000000    -2.543000000    -6.540000000
C     2.910000000    -2.991000000    -5.823000000
C     4.169000000    -2.720000000    -6.216000000
H     4.299000000    -2.107000000    -7.104000000
C     5.268000000    -3.054000000    -5.405000000
H     6.263000000    -2.821000000    -5.775000000
C     5.042000000    -3.516000000    -4.150000000
H     5.941000000    -3.684000000    -3.563000000
C     3.745000000    -3.863000000    -3.734000000
C     2.654000000    -3.612000000    -4.578000000
H     1.625000000    -3.784000000    -4.271000000
C     0.474000000    -3.236000000    -0.210000000
H     0.973000000    -3.943000000     0.447000000
C     0.539000000    -1.864000000     0.169000000
H     1.047000000    -1.651000000     1.106000000
C     0.123000000    -0.895000000    -0.714000000
H     0.157000000     0.131000000    -0.370000000
C    -0.397000000    -1.204000000    -1.958000000
H    -0.689000000    -0.406000000    -2.635000000
C    -0.521000000    -2.567000000    -2.285000000
H    -0.888000000    -2.866000000    -3.264000000
C    -0.114000000    -3.629000000    -1.426000000
C    -0.309000000    -5.046000000    -1.808000000
O    -1.192000000    -5.347000000    -2.617000000
O    -0.063000000    -5.823000000    -0.883000000
O     2.114000000    -7.742000000    -2.727000000
H     2.223000000    -7.513000000    -3.650000000
H     1.234000000    -8.114000000    -2.675000000
O    -1.535000000    -8.529000000    -4.468000000
H    -1.375000000    -9.441000000    -4.714000000
H    -1.274000000    -8.480000000    -3.549000000
O     3.184000000    -7.423000000    -6.160000000
H     2.813000000    -8.269000000    -6.412000000
H     2.477000000    -6.796000000    -6.316000000
O    -1.332000000    -5.977000000    -5.074000000
H    -1.337000000    -6.928000000    -4.963000000
H    -1.380000000    -5.631000000    -4.183000000
O     3.603000000    -8.829000000    -0.173000000
H     2.845000000    -8.310000000     0.097000000
H     4.267000000    -8.180000000    -0.405000000
O    -0.745000000    -8.539000000    -1.579000000
H    -1.314000000    -8.779000000    -0.848000000
H    -0.467000000    -7.644000000    -1.384000000
O     5.060000000    -7.085000000    -4.117000000
H     4.286000000    -6.527000000    -4.190000000
H     4.862000000    -7.843000000    -4.667000000
O     1.175000000    -5.815000000    -6.623000000
H     0.441000000    -5.517000000    -6.086000000
H     1.090000000    -5.325000000    -7.440000000
O     3.257000000   -10.311000000    -2.667000000
H     3.276000000   -10.100000000    -3.600000000
H     3.053000000    -9.479000000    -2.238000000
O    -3.744000000    -6.330000000     2.015000000
H    -2.958000000    -5.855000000     1.744000000
H    -3.412000000    -7.141000000     2.401000000
O    -1.426000000    -5.307000000     1.514000000
H    -0.822000000    -5.555000000     0.815000000
H    -1.543000000    -4.364000000     1.406000000
O    -1.024000000    -9.089000000     1.286000000
H    -1.920000000    -9.191000000     0.964000000
H    -1.119000000    -8.601000000     2.105000000
O     1.480000000    -7.497000000     0.976000000
H     0.723000000    -8.073000000     1.079000000
H     1.189000000    -6.828000000     0.357000000
O    -2.075000000    -5.983000000    -7.906000000
H    -1.775000000    -5.814000000    -7.013000000
H    -1.300000000    -6.312000000    -8.361000000
O    -3.262000000    -8.989000000    -0.169000000
H    -3.885000000    -9.536000000    -0.648000000
H    -3.363000000    -8.118000000    -0.554000000
O    -2.563000000    -2.579000000     0.548000000
H    -1.678000000    -2.393000000     0.236000000
H    -3.124000000    -2.415000000    -0.210000000
O    -0.843000000    -7.409000000     3.269000000
H    -0.825000000    -6.472000000     3.072000000
H     0.009000000    -7.586000000     3.668000000
O    -3.635000000    -6.945000000    -2.209000000
H    -3.712000000    -7.571000000    -2.929000000
H    -2.844000000    -6.444000000    -2.410000000
O    -4.574000000    -3.964000000    -1.534000000
H    -4.097000000    -4.540000000    -2.131000000
H    -4.677000000    -4.480000000    -0.735000000
