215
-1448.40496
C    -2.591000000    -1.127000000     3.677000000
H    -2.991000000    -0.407000000     2.968000000
C    -1.453000000    -0.737000000     4.382000000
C    -0.802000000    -1.723000000     5.224000000
H     0.122000000    -1.465000000     5.736000000
C    -0.952000000     0.685000000     4.221000000
O    -1.959000000     1.723000000     4.266000000
H    -0.644000000     0.751000000     3.167000000
O     0.168000000     1.100000000     5.031000000
C     1.342000000     1.569000000     4.473000000
C     2.314000000     0.648000000     4.083000000
H     2.116000000    -0.417000000     4.170000000
C     3.382000000     1.061000000     3.274000000
O     4.215000000     0.122000000     2.792000000
C     3.396000000     2.366000000     2.821000000
C     4.476000000     2.795000000     1.881000000
H     4.774000000     3.834000000     2.037000000
C     4.153000000     2.487000000     0.378000000
C     3.532000000     3.480000000    -0.407000000
H     3.389000000     4.432000000     0.098000000
H     5.350000000     2.191000000     2.132000000
C     2.482000000     3.359000000     3.225000000
H     2.566000000     4.402000000     2.930000000
C     1.389000000     2.898000000     3.949000000
C     0.152000000     3.795000000     4.148000000
H     0.456000000     4.840000000     4.058000000
H    -0.290000000     3.627000000     5.132000000
C    -0.942000000     3.559000000     3.088000000
C    -1.109000000     4.551000000     2.033000000
H    -0.403000000     5.378000000     2.019000000
C    -1.917000000     2.596000000     3.221000000
C    -2.943000000     2.492000000     2.321000000
H    -3.684000000     1.698000000     2.361000000
C    -2.987000000     3.287000000     1.187000000
O    -3.877000000     2.940000000     0.203000000
C    -3.341000000     2.240000000    -1.000000000
C    -4.346000000     1.142000000    -1.499000000
C    -4.172000000     0.594000000    -2.833000000
H    -3.420000000     1.015000000    -3.495000000
C    -5.372000000     0.666000000    -0.689000000
H    -5.585000000     1.099000000     0.285000000
O    -3.042000000     3.219000000    -2.097000000
H    -2.437000000     1.720000000    -0.650000000
C    -1.989000000     4.277000000     1.008000000
C    -1.954000000     5.178000000    -0.206000000
H    -1.509000000     6.147000000     0.031000000
H    -2.999000000     5.382000000    -0.451000000
C    -1.193000000     4.460000000    -1.333000000
C     0.219000000     4.595000000    -1.394000000
H     0.655000000     5.178000000    -0.586000000
C    -1.769000000     3.639000000    -2.284000000
C    -1.049000000     3.010000000    -3.282000000
H    -1.410000000     2.392000000    -4.100000000
C     0.350000000     3.224000000    -3.351000000
O     1.074000000     2.599000000    -4.279000000
C     1.775000000     1.475000000    -3.855000000
C     1.414000000     0.205000000    -4.644000000
C     0.395000000     0.257000000    -5.587000000
H    -0.178000000     1.163000000    -5.765000000
C     2.106000000    -0.974000000    -4.448000000
H     3.030000000    -1.003000000    -3.877000000
O     3.180000000     1.777000000    -3.677000000
H     1.400000000     1.260000000    -2.844000000
C     0.960000000     4.030000000    -2.419000000
C     2.454000000     4.295000000    -2.480000000
H     2.554000000     5.290000000    -2.040000000
H     2.846000000     4.407000000    -3.493000000
C     3.263000000     3.306000000    -1.728000000
C     3.505000000     2.047000000    -2.333000000
C     3.940000000     0.969000000    -1.577000000
H     4.179000000     0.031000000    -2.070000000
C     4.269000000     1.201000000    -0.194000000
O     4.671000000     0.123000000     0.570000000
C     3.805000000    -0.484000000     1.574000000
H     2.773000000    -0.207000000     1.313000000
C     4.000000000    -1.984000000     1.495000000
C     3.771000000    -2.760000000     2.629000000
H     3.615000000    -2.323000000     3.611000000
C     4.243000000    -2.597000000     0.277000000
H     4.353000000    -2.004000000    -0.628000000
C     4.218000000    -3.966000000     0.237000000
O     4.301000000    -4.637000000    -0.951000000
C     4.135000000    -4.786000000     1.366000000
H     4.026000000    -5.864000000     1.277000000
C     3.773000000    -4.161000000     2.610000000
O     3.806000000    -4.960000000     3.754000000
C     2.999000000    -4.680000000     4.844000000
C     1.663000000    -4.280000000     4.683000000
H     1.349000000    -4.329000000     3.644000000
C     3.575000000    -4.827000000     6.097000000
H     4.602000000    -5.124000000     6.292000000
C     2.699000000    -4.673000000     7.202000000
H     3.070000000    -5.016000000     8.164000000
C     1.415000000    -4.272000000     7.091000000
H     0.773000000    -4.111000000     7.952000000
C     0.921000000    -4.043000000     5.798000000
O    -0.466000000    -4.016000000     5.697000000
C    -1.177000000    -3.041000000     5.153000000
C    -2.281000000    -3.469000000     4.325000000
H    -2.636000000    -4.491000000     4.216000000
C    -3.016000000    -2.477000000     3.641000000
O    -4.023000000    -2.787000000     2.799000000
C    -5.219000000    -2.089000000     2.707000000
C    -5.568000000    -1.815000000     1.403000000
H    -4.969000000    -2.156000000     0.562000000
C    -5.953000000    -1.515000000     3.780000000
H    -5.610000000    -1.493000000     4.811000000
C    -7.129000000    -0.827000000     3.482000000
H    -7.658000000    -0.389000000     4.324000000
C    -7.620000000    -0.716000000     2.130000000
H    -8.543000000    -0.173000000     1.944000000
C    -6.803000000    -1.167000000     1.061000000
O    -7.139000000    -0.987000000    -0.298000000
C    -6.264000000    -0.317000000    -1.156000000
C    -6.106000000    -0.828000000    -2.405000000
H    -6.721000000    -1.661000000    -2.734000000
C    -5.091000000    -0.371000000    -3.285000000
O    -5.011000000    -0.815000000    -4.647000000
C    -4.171000000    -0.214000000    -5.570000000
C    -3.027000000    -0.817000000    -6.008000000
H    -2.687000000    -1.675000000    -5.434000000
C    -4.662000000     0.880000000    -6.289000000
H    -5.629000000     1.335000000    -6.090000000
C    -3.962000000     1.432000000    -7.368000000
H    -4.369000000     2.304000000    -7.872000000
C    -2.782000000     0.827000000    -7.755000000
H    -2.219000000     1.263000000    -8.576000000
C    -2.226000000    -0.264000000    -7.033000000
O    -1.004000000    -0.848000000    -7.327000000
C     0.039000000    -0.843000000    -6.341000000
C     0.735000000    -2.076000000    -6.095000000
H     0.565000000    -3.015000000    -6.617000000
C     1.778000000    -2.091000000    -5.179000000
O     2.564000000    -3.252000000    -5.113000000
C     3.655000000    -3.347000000    -4.318000000
C     4.939000000    -2.870000000    -4.712000000
H     5.172000000    -2.514000000    -5.713000000
C     5.974000000    -2.974000000    -3.780000000
H     6.970000000    -2.654000000    -4.076000000
C     5.763000000    -3.486000000    -2.488000000
H     6.524000000    -3.485000000    -1.712000000
C     4.495000000    -4.036000000    -2.180000000
C     3.448000000    -3.965000000    -3.115000000
H     2.498000000    -4.346000000    -2.748000000
C     0.503000000    -2.356000000     1.151000000
H     0.711000000    -2.929000000     2.051000000
C     0.418000000    -0.927000000     1.241000000
H     0.659000000    -0.487000000     2.206000000
C     0.190000000    -0.228000000     0.056000000
H     0.139000000     0.863000000     0.094000000
C    -0.185000000    -0.869000000    -1.118000000
H    -0.382000000    -0.416000000    -2.086000000
C    -0.080000000    -2.245000000    -1.168000000
H    -0.328000000    -2.744000000    -2.102000000
C     0.180000000    -3.018000000    -0.038000000
C     0.379000000    -4.528000000    -0.152000000
O    -0.130000000    -5.084000000    -1.089000000
O     0.717000000    -5.246000000     0.778000000
O     4.042000000    -7.739000000    -1.187000000
H     3.665000000    -7.702000000    -2.066000000
H     4.733000000    -7.076000000    -1.194000000
O     0.919000000    -7.797000000    -3.934000000
H     1.863000000    -7.915000000    -3.831000000
H     0.553000000    -8.036000000    -3.082000000
O     3.758000000    -7.953000000    -4.068000000
H     3.957000000    -8.848000000    -4.342000000
H     3.649000000    -7.470000000    -4.888000000
O    -0.385000000    -5.245000000    -3.581000000
H     0.062000000    -6.068000000    -3.775000000
H    -0.161000000    -5.059000000    -2.669000000
O    -2.296000000    -7.878000000    -3.297000000
H    -1.568000000    -7.592000000    -3.849000000
H    -2.458000000    -7.138000000    -2.712000000
O     3.072000000    -9.668000000     2.927000000
H     2.583000000    -9.754000000     3.745000000
H     2.635000000    -8.955000000     2.461000000
O     0.257000000    -7.716000000    -1.206000000
H     0.576000000    -8.038000000    -0.363000000
H     0.125000000    -6.778000000    -1.070000000
O     6.611000000    -6.231000000    -0.674000000
H     7.493000000    -6.007000000    -0.972000000
H     6.436000000    -5.617000000     0.039000000
O    -5.891000000    -5.500000000    -1.316000000
H    -6.173000000    -4.811000000    -0.715000000
H    -5.303000000    -6.047000000    -0.794000000
O    -1.180000000    -6.518000000     2.308000000
H    -0.526000000    -6.035000000     1.802000000
H    -2.012000000    -6.103000000     2.080000000
O     1.880000000    -7.671000000     1.060000000
H     2.630000000    -7.465000000     0.502000000
H     1.418000000    -6.839000000     1.158000000
O    -2.654000000    -4.501000000    -4.638000000
H    -1.856000000    -4.621000000    -4.124000000
H    -2.364000000    -4.565000000    -5.548000000
O    -5.420000000    -5.454000000    -4.001000000
H    -5.948000000    -5.291000000    -3.219000000
H    -4.596000000    -4.998000000    -3.833000000
O     0.037000000   -10.534000000    -2.178000000
H    -0.912000000   -10.650000000    -2.235000000
H     0.153000000    -9.604000000    -1.984000000
O    -3.528000000    -5.279000000     1.526000000
H    -4.412000000    -5.623000000     1.404000000
H    -3.660000000    -4.387000000     1.849000000
O    -3.986000000    -8.806000000     2.386000000
H    -3.233000000    -8.373000000     1.985000000
H    -4.424000000    -9.249000000     1.659000000
O     0.936000000    -7.445000000     4.440000000
H     0.165000000    -8.006000000     4.353000000
H     1.338000000    -7.455000000     3.571000000
O    -1.398000000    -8.816000000     3.921000000
H    -2.070000000    -9.207000000     3.363000000
H    -1.273000000    -7.936000000     3.566000000
O    -2.571000000    -6.086000000    -0.971000000
H    -2.785000000    -5.895000000    -0.057000000
H    -1.823000000    -5.522000000    -1.164000000
