215
-1456.58574
C    -2.675000000    -1.128000000     3.795000000
H    -3.242000000    -0.377000000     3.252000000
C    -1.364000000    -0.874000000     4.302000000
C    -0.544000000    -1.943000000     4.703000000
H     0.529000000    -1.834000000     4.831000000
C    -0.722000000     0.504000000     4.063000000
O    -1.687000000     1.558000000     4.233000000
H    -0.412000000     0.449000000     3.009000000
O     0.492000000     0.827000000     4.884000000
C     1.563000000     1.371000000     4.263000000
C     2.685000000     0.647000000     3.942000000
H     2.686000000    -0.403000000     4.222000000
C     3.662000000     1.203000000     3.105000000
O     4.483000000     0.255000000     2.577000000
C     3.552000000     2.422000000     2.537000000
C     4.645000000     2.943000000     1.522000000
H     4.813000000     4.000000000     1.740000000
C     4.250000000     2.711000000     0.050000000
C     3.645000000     3.676000000    -0.729000000
H     3.526000000     4.688000000    -0.352000000
H     5.637000000     2.532000000     1.715000000
C     2.525000000     3.270000000     2.977000000
H     2.506000000     4.290000000     2.604000000
C     1.490000000     2.751000000     3.875000000
C     0.306000000     3.676000000     4.157000000
H     0.640000000     4.715000000     4.192000000
H    -0.072000000     3.426000000     5.150000000
C    -0.787000000     3.562000000     3.099000000
C    -0.867000000     4.515000000     2.121000000
H    -0.018000000     5.195000000     2.119000000
C    -1.788000000     2.521000000     3.280000000
C    -2.817000000     2.483000000     2.346000000
H    -3.613000000     1.742000000     2.360000000
C    -2.912000000     3.412000000     1.286000000
O    -3.794000000     3.097000000     0.328000000
C    -3.402000000     2.402000000    -0.839000000
C    -4.418000000     1.280000000    -1.205000000
C    -4.357000000     0.587000000    -2.474000000
H    -3.669000000     0.900000000    -3.255000000
C    -5.434000000     0.901000000    -0.369000000
H    -5.402000000     1.384000000     0.604000000
O    -3.111000000     3.355000000    -1.839000000
H    -2.480000000     1.820000000    -0.693000000
C    -1.882000000     4.402000000     1.134000000
C    -1.808000000     5.296000000    -0.042000000
H    -1.169000000     6.153000000     0.183000000
H    -2.780000000     5.699000000    -0.336000000
C    -1.181000000     4.612000000    -1.249000000
C     0.162000000     4.879000000    -1.552000000
H     0.736000000     5.528000000    -0.896000000
C    -1.864000000     3.711000000    -2.059000000
C    -1.219000000     3.056000000    -3.097000000
H    -1.745000000     2.305000000    -3.680000000
C     0.075000000     3.304000000    -3.409000000
O     0.761000000     2.435000000    -4.315000000
C     1.422000000     1.234000000    -3.794000000
C     1.244000000     0.052000000    -4.705000000
C     0.067000000    -0.115000000    -5.452000000
H    -0.649000000     0.699000000    -5.376000000
C     2.250000000    -0.934000000    -4.940000000
H     3.227000000    -0.836000000    -4.473000000
O     2.822000000     1.529000000    -3.616000000
H     1.000000000     0.916000000    -2.828000000
C     0.800000000     4.133000000    -2.577000000
C     2.345000000     4.330000000    -2.736000000
H     2.620000000     5.371000000    -2.557000000
H     2.624000000     4.220000000    -3.786000000
C     3.143000000     3.353000000    -1.951000000
C     3.285000000     2.048000000    -2.458000000
C     3.868000000     1.053000000    -1.685000000
H     3.714000000     0.007000000    -1.934000000
C     4.374000000     1.373000000    -0.422000000
O     4.897000000     0.348000000     0.280000000
C     4.085000000    -0.238000000     1.260000000
H     3.049000000     0.104000000     1.118000000
C     4.075000000    -1.747000000     1.250000000
C     4.049000000    -2.546000000     2.451000000
H     3.989000000    -2.018000000     3.399000000
C     4.063000000    -2.418000000    -0.011000000
H     4.197000000    -1.794000000    -0.891000000
C     3.915000000    -3.790000000    -0.005000000
O     3.819000000    -4.547000000    -1.168000000
C     3.950000000    -4.530000000     1.145000000
H     4.017000000    -5.612000000     1.067000000
C     4.066000000    -3.977000000     2.345000000
O     4.022000000    -4.833000000     3.427000000
C     3.118000000    -4.629000000     4.491000000
C     1.790000000    -4.396000000     4.261000000
H     1.412000000    -4.471000000     3.244000000
C     3.703000000    -4.772000000     5.730000000
H     4.742000000    -5.058000000     5.872000000
C     2.868000000    -4.676000000     6.870000000
H     3.322000000    -4.770000000     7.853000000
C     1.538000000    -4.384000000     6.671000000
H     0.788000000    -4.282000000     7.451000000
C     1.005000000    -4.295000000     5.376000000
O    -0.358000000    -4.278000000     5.217000000
C    -1.126000000    -3.234000000     4.699000000
C    -2.503000000    -3.459000000     4.352000000
H    -2.834000000    -4.493000000     4.295000000
C    -3.219000000    -2.400000000     3.830000000
O    -4.408000000    -2.767000000     3.219000000
C    -5.451000000    -1.931000000     3.022000000
C    -5.931000000    -1.690000000     1.714000000
H    -5.427000000    -2.121000000     0.853000000
C    -5.956000000    -1.262000000     4.124000000
H    -5.510000000    -1.439000000     5.099000000
C    -6.989000000    -0.299000000     3.943000000
H    -7.483000000     0.164000000     4.794000000
C    -7.502000000    -0.119000000     2.619000000
H    -8.223000000     0.686000000     2.494000000
C    -6.947000000    -0.790000000     1.550000000
O    -7.331000000    -0.496000000     0.278000000
C    -6.328000000    -0.130000000    -0.665000000
C    -6.270000000    -0.827000000    -1.913000000
H    -7.001000000    -1.590000000    -2.165000000
C    -5.312000000    -0.440000000    -2.798000000
O    -5.152000000    -1.203000000    -3.948000000
C    -4.415000000    -0.644000000    -4.989000000
C    -3.299000000    -1.298000000    -5.479000000
H    -3.037000000    -2.219000000    -4.965000000
C    -4.838000000     0.499000000    -5.635000000
H    -5.768000000     0.946000000    -5.295000000
C    -4.009000000     1.197000000    -6.539000000
H    -4.204000000     2.168000000    -6.988000000
C    -2.793000000     0.591000000    -6.963000000
H    -2.201000000     1.154000000    -7.680000000
C    -2.492000000    -0.689000000    -6.476000000
O    -1.381000000    -1.336000000    -6.959000000
C    -0.265000000    -1.290000000    -6.161000000
C     0.708000000    -2.333000000    -6.224000000
H     0.453000000    -3.212000000    -6.810000000
C     1.931000000    -2.117000000    -5.639000000
O     2.812000000    -3.133000000    -5.645000000
C     3.727000000    -3.410000000    -4.630000000
C     5.061000000    -3.131000000    -4.853000000
H     5.393000000    -2.793000000    -5.832000000
C     6.043000000    -3.272000000    -3.821000000
H     7.093000000    -3.059000000    -4.000000000
C     5.642000000    -3.768000000    -2.640000000
H     6.328000000    -3.790000000    -1.798000000
C     4.272000000    -4.005000000    -2.379000000
C     3.367000000    -3.859000000    -3.383000000
H     2.320000000    -4.101000000    -3.222000000
C     0.596000000    -2.661000000     0.576000000
H     0.834000000    -3.288000000     1.432000000
C     0.586000000    -1.290000000     0.837000000
H     0.866000000    -0.931000000     1.824000000
C     0.139000000    -0.413000000    -0.156000000
H     0.032000000     0.687000000    -0.075000000
C    -0.334000000    -0.927000000    -1.328000000
H    -0.774000000    -0.195000000    -1.999000000
C    -0.329000000    -2.257000000    -1.612000000
H    -0.587000000    -2.552000000    -2.626000000
C     0.133000000    -3.154000000    -0.657000000
C     0.043000000    -4.571000000    -0.958000000
O    -0.652000000    -4.905000000    -1.929000000
O     0.555000000    -5.379000000    -0.271000000
O     2.343000000    -6.829000000    -1.785000000
H     3.088000000    -6.270000000    -2.003000000
H     1.948000000    -6.413000000    -1.018000000
O    -0.105000000    -8.393000000    -5.530000000
H    -0.402000000    -9.272000000    -5.298000000
H    -0.045000000    -7.932000000    -4.693000000
O    -1.745000000    -4.701000000    -4.470000000
H    -1.144000000    -4.104000000    -4.915000000
H    -1.508000000    -4.634000000    -3.545000000
O    -3.690000000    -6.870000000    -3.586000000
H    -3.011000000    -6.265000000    -3.884000000
H    -3.489000000    -7.020000000    -2.662000000
O     4.058000000    -8.136000000     1.453000000
H     3.445000000    -8.369000000     2.150000000
H     3.502000000    -7.948000000     0.697000000
O    -0.020000000    -7.143000000    -3.262000000
H     0.831000000    -7.337000000    -2.870000000
H    -0.237000000    -6.268000000    -2.941000000
O    -1.901000000    -9.025000000    -2.860000000
H    -2.593000000    -8.794000000    -3.480000000
H    -1.221000000    -8.368000000    -3.003000000
O     4.368000000    -7.313000000    -4.044000000
H     4.819000000    -7.000000000    -3.259000000
H     4.661000000    -6.723000000    -4.738000000
O     3.427000000    -9.655000000    -2.411000000
H     3.401000000    -9.459000000    -3.347000000
H     3.142000000    -8.844000000    -1.988000000
O     0.940000000   -10.076000000     2.630000000
H     1.018000000    -9.306000000     2.066000000
H     0.137000000   -10.507000000     2.336000000
O    -2.919000000    -8.132000000     2.486000000
H    -2.508000000    -7.361000000     2.096000000
H    -2.721000000    -8.843000000     1.877000000
O    -0.971000000    -5.634000000     1.919000000
H    -0.210000000    -5.614000000     1.339000000
H    -1.424000000    -4.808000000     1.749000000
O     0.583000000    -9.421000000    -1.545000000
H    -0.227000000    -9.210000000    -2.008000000
H     1.082000000    -9.952000000    -2.166000000
O     1.249000000    -7.895000000     0.999000000
H     1.060000000    -8.468000000     0.255000000
H     1.065000000    -7.013000000     0.675000000
O    -2.396000000    -9.433000000     0.089000000
H    -2.695000000    -9.679000000    -0.786000000
H    -2.434000000    -8.477000000     0.095000000
O    -2.823000000    -3.489000000     1.049000000
H    -2.960000000    -3.148000000     0.165000000
H    -2.904000000    -2.724000000     1.617000000
O     0.328000000    -7.366000000     3.819000000
H     1.203000000    -7.240000000     3.450000000
H    -0.199000000    -6.669000000     3.430000000
O    -2.258000000    -6.709000000    -0.732000000
H    -2.730000000    -6.005000000    -0.288000000
H    -1.401000000    -6.333000000    -0.935000000
O    -5.956000000    -4.162000000    -0.557000000
H    -5.148000000    -4.577000000    -0.257000000
H    -6.654000000    -4.662000000    -0.133000000
