215
-1463.01511
C    -1.194000000    -0.518000000     5.016000000
H    -2.177000000    -0.060000000     4.945000000
C    -0.002000000     0.147000000     4.662000000
C     1.160000000    -0.648000000     4.699000000
H     2.053000000    -0.262000000     4.214000000
C    -0.091000000     1.535000000     4.018000000
O    -1.385000000     2.235000000     4.346000000
H    -0.073000000     1.361000000     2.932000000
O     1.086000000     2.314000000     4.386000000
C     1.704000000     2.878000000     3.310000000
C     2.878000000     2.343000000     2.833000000
H     3.267000000     1.512000000     3.415000000
C     3.364000000     2.758000000     1.633000000
O     4.482000000     2.136000000     1.106000000
C     2.912000000     3.904000000     1.003000000
C     3.411000000     4.375000000    -0.352000000
H     3.265000000     5.451000000    -0.466000000
C     2.831000000     3.550000000    -1.502000000
C     1.708000000     4.039000000    -2.188000000
H     1.263000000     4.929000000    -1.751000000
H     4.497000000     4.286000000    -0.413000000
C     1.776000000     4.546000000     1.596000000
H     1.299000000     5.397000000     1.117000000
C     1.147000000     4.016000000     2.746000000
C    -0.173000000     4.639000000     3.211000000
H    -0.161000000     5.710000000     2.995000000
H    -0.229000000     4.579000000     4.300000000
C    -1.397000000     3.916000000     2.674000000
C    -1.928000000     4.363000000     1.463000000
H    -1.404000000     5.173000000     0.963000000
C    -1.919000000     2.748000000     3.247000000
C    -3.024000000     2.085000000     2.715000000
H    -3.502000000     1.243000000     3.209000000
C    -3.488000000     2.549000000     1.507000000
O    -4.477000000     1.738000000     0.963000000
C    -4.151000000     0.925000000    -0.128000000
C    -4.929000000    -0.401000000    -0.008000000
C    -5.369000000    -0.996000000    -1.187000000
H    -5.257000000    -0.510000000    -2.152000000
C    -4.970000000    -1.072000000     1.223000000
H    -4.485000000    -0.717000000     2.129000000
O    -4.535000000     1.652000000    -1.365000000
H    -3.096000000     0.612000000    -0.135000000
C    -2.957000000     3.658000000     0.807000000
C    -3.519000000     4.197000000    -0.514000000
H    -3.275000000     5.260000000    -0.560000000
H    -4.610000000     4.216000000    -0.469000000
C    -3.028000000     3.471000000    -1.699000000
C    -1.975000000     4.032000000    -2.448000000
H    -1.669000000     5.054000000    -2.239000000
C    -3.543000000     2.253000000    -2.115000000
C    -3.006000000     1.532000000    -3.194000000
H    -3.304000000     0.519000000    -3.452000000
C    -1.816000000     2.024000000    -3.802000000
O    -1.137000000     1.153000000    -4.629000000
C     0.005000000     0.480000000    -4.129000000
C    -0.047000000    -1.047000000    -4.516000000
C    -1.187000000    -1.740000000    -4.764000000
H    -2.111000000    -1.169000000    -4.786000000
C     1.201000000    -1.728000000    -4.449000000
H     2.169000000    -1.249000000    -4.326000000
O     1.143000000     1.166000000    -4.489000000
H    -0.086000000     0.575000000    -3.036000000
C    -1.354000000     3.301000000    -3.498000000
C     0.001000000     3.875000000    -4.000000000
H     0.015000000     4.957000000    -3.853000000
H     0.135000000     3.734000000    -5.074000000
C     1.223000000     3.311000000    -3.278000000
C     1.727000000     2.077000000    -3.623000000
C     2.812000000     1.607000000    -2.892000000
H     3.146000000     0.599000000    -3.124000000
C     3.352000000     2.344000000    -1.867000000
O     4.494000000     1.775000000    -1.236000000
C     4.293000000     1.181000000     0.014000000
H     3.256000000     0.815000000     0.061000000
C     5.121000000    -0.109000000     0.066000000
C     5.410000000    -0.685000000     1.296000000
H     4.927000000    -0.338000000     2.206000000
C     5.550000000    -0.804000000    -1.086000000
H     5.213000000    -0.414000000    -2.043000000
C     6.226000000    -2.020000000    -1.040000000
O     6.523000000    -2.712000000    -2.259000000
C     6.387000000    -2.599000000     0.213000000
H     6.769000000    -3.615000000     0.280000000
C     5.994000000    -1.946000000     1.392000000
O     6.297000000    -2.539000000     2.606000000
C     5.722000000    -2.192000000     3.828000000
C     4.369000000    -2.476000000     4.100000000
H     3.798000000    -3.116000000     3.432000000
C     6.353000000    -1.277000000     4.671000000
H     7.368000000    -0.945000000     4.468000000
C     5.702000000    -0.846000000     5.811000000
H     6.217000000    -0.139000000     6.456000000
C     4.362000000    -1.170000000     6.057000000
H     3.925000000    -0.933000000     7.023000000
C     3.673000000    -2.043000000     5.225000000
O     2.387000000    -2.562000000     5.424000000
C     1.220000000    -1.901000000     5.293000000
C     0.041000000    -2.456000000     5.647000000
H     0.117000000    -3.403000000     6.175000000
C    -1.154000000    -1.768000000     5.557000000
O    -2.341000000    -2.279000000     6.079000000
C    -3.599000000    -2.069000000     5.474000000
C    -3.984000000    -2.641000000     4.247000000
H    -3.186000000    -3.089000000     3.659000000
C    -4.603000000    -1.461000000     6.203000000
H    -4.316000000    -1.071000000     7.176000000
C    -5.908000000    -1.369000000     5.702000000
H    -6.713000000    -0.949000000     6.300000000
C    -6.241000000    -1.957000000     4.478000000
H    -7.272000000    -1.956000000     4.132000000
C    -5.255000000    -2.591000000     3.685000000
O    -5.615000000    -3.129000000     2.408000000
C    -5.570000000    -2.329000000     1.222000000
C    -6.041000000    -2.972000000     0.089000000
H    -6.348000000    -4.014000000     0.114000000
C    -5.949000000    -2.267000000    -1.118000000
O    -6.407000000    -2.891000000    -2.304000000
C    -5.645000000    -2.851000000    -3.487000000
C    -4.353000000    -3.414000000    -3.555000000
H    -4.001000000    -3.808000000    -2.605000000
C    -6.230000000    -2.356000000    -4.637000000
H    -7.257000000    -2.002000000    -4.612000000
C    -5.545000000    -2.469000000    -5.874000000
H    -6.106000000    -2.257000000    -6.781000000
C    -4.231000000    -2.889000000    -5.869000000
H    -3.752000000    -2.955000000    -6.842000000
C    -3.558000000    -3.294000000    -4.693000000
O    -2.269000000    -3.902000000    -4.874000000
C    -1.167000000    -3.153000000    -4.809000000
C     0.009000000    -3.770000000    -4.634000000
H    -0.059000000    -4.842000000    -4.469000000
C     1.175000000    -3.090000000    -4.485000000
O     2.345000000    -3.852000000    -4.364000000
C     3.625000000    -3.296000000    -4.452000000
C     4.146000000    -2.911000000    -5.688000000
H     3.525000000    -2.910000000    -6.580000000
C     5.504000000    -2.490000000    -5.787000000
H     5.912000000    -2.118000000    -6.724000000
C     6.310000000    -2.419000000    -4.610000000
H     7.360000000    -2.139000000    -4.645000000
C     5.709000000    -2.773000000    -3.393000000
C     4.408000000    -3.177000000    -3.270000000
H     3.971000000    -3.477000000    -2.321000000
C     1.975000000    -1.909000000     0.874000000
H     2.840000000    -2.175000000     1.477000000
C     1.388000000    -0.660000000     0.904000000
H     1.778000000     0.163000000     1.498000000
C     0.299000000    -0.339000000     0.117000000
H    -0.144000000     0.682000000     0.183000000
C    -0.356000000    -1.298000000    -0.607000000
H    -1.247000000    -1.024000000    -1.168000000
C     0.128000000    -2.581000000    -0.486000000
H    -0.397000000    -3.420000000    -0.935000000
C     1.319000000    -2.958000000     0.216000000
C     1.675000000    -4.394000000     0.407000000
O     1.111000000    -5.254000000    -0.217000000
O     2.564000000    -4.657000000     1.134000000
O    -4.945000000    -6.068000000     1.313000000
H    -4.003000000    -5.935000000     1.420000000
H    -5.060000000    -6.222000000     0.375000000
O     1.678000000    -6.472000000    -2.545000000
H     1.442000000    -5.915000000    -1.804000000
H     1.011000000    -7.159000000    -2.551000000
O    -0.283000000    -8.323000000    -2.191000000
H    -1.229000000    -8.467000000    -2.222000000
H     0.095000000    -9.200000000    -2.258000000
O    -0.864000000    -7.697000000     3.756000000
H    -0.394000000    -7.621000000     2.926000000
H    -1.768000000    -7.465000000     3.541000000
O     4.208000000    -6.471000000     1.994000000
H     3.747000000    -5.729000000     1.603000000
H     3.528000000    -7.134000000     2.121000000
O     2.420000000    -6.630000000    -5.020000000
H     2.130000000    -6.312000000    -4.165000000
H     1.632000000    -6.610000000    -5.563000000
O     6.776000000    -7.167000000    -0.551000000
H     5.950000000    -7.010000000    -1.007000000
H     7.450000000    -6.903000000    -1.178000000
O    -1.716000000    -5.817000000    -1.146000000
H    -0.893000000    -5.331000000    -1.098000000
H    -1.584000000    -6.569000000    -0.568000000
O     1.485000000    -5.140000000     3.612000000
H     1.803000000    -5.118000000     2.710000000
H     2.273000000    -5.035000000     4.146000000
O     6.480000000    -6.057000000    -4.053000000
H     5.850000000    -6.316000000    -3.381000000
H     7.278000000    -5.848000000    -3.567000000
O     6.673000000    -7.343000000     2.021000000
H     6.804000000    -7.307000000     1.074000000
H     5.787000000    -7.006000000     2.153000000
O     4.387000000    -6.133000000    -1.828000000
H     3.574000000    -6.184000000    -2.331000000
H     4.136000000    -5.709000000    -1.008000000
O     5.044000000    -5.713000000     4.931000000
H     4.934000000    -6.077000000     4.053000000
H     5.933000000    -5.356000000     4.932000000
O     2.350000000    -8.628000000     1.141000000
H     2.394000000    -8.701000000     0.188000000
H     2.213000000    -9.526000000     1.443000000
O    -0.214000000    -7.426000000     0.801000000
H     0.480000000    -8.064000000     0.968000000
H     0.243000000    -6.659000000     0.455000000
O    -0.835000000    -3.948000000     3.132000000
H    -0.028000000    -4.435000000     3.303000000
H    -0.548000000    -3.170000000     2.654000000
O    -1.849000000    -9.465000000     0.550000000
H    -1.240000000    -8.733000000     0.646000000
H    -2.480000000    -9.347000000     1.260000000
O    -2.338000000    -5.915000000     2.123000000
H    -1.471000000    -6.236000000     1.876000000
H    -2.188000000    -5.014000000     2.410000000
O    -3.443000000    -6.970000000    -2.963000000
H    -2.797000000    -6.411000000    -2.532000000
H    -3.707000000    -6.476000000    -3.740000000
