215
-1469.34456
C    -1.574000000    -1.329000000     5.205000000
H    -2.487000000    -0.776000000     4.998000000
C    -0.353000000    -0.828000000     4.896000000
C     0.751000000    -1.670000000     4.866000000
H     1.714000000    -1.257000000     4.575000000
C    -0.390000000     0.581000000     4.262000000
O    -1.577000000     1.387000000     4.462000000
H    -0.288000000     0.571000000     3.167000000
O     0.597000000     1.392000000     4.874000000
C     1.471000000     2.192000000     4.033000000
C     2.603000000     1.645000000     3.513000000
H     2.934000000     0.652000000     3.806000000
C     3.333000000     2.337000000     2.526000000
O     4.265000000     1.591000000     1.924000000
C     2.827000000     3.591000000     2.088000000
C     3.538000000     4.147000000     0.885000000
H     3.372000000     5.226000000     0.911000000
C     2.980000000     3.559000000    -0.402000000
C     2.020000000     4.256000000    -1.121000000
H     1.719000000     5.221000000    -0.721000000
H     4.611000000     3.951000000     0.933000000
C     1.564000000     4.077000000     2.504000000
H     1.134000000     4.960000000     2.038000000
C     0.960000000     3.364000000     3.524000000
C    -0.403000000     3.870000000     4.027000000
H    -0.306000000     4.958000000     4.003000000
H    -0.503000000     3.619000000     5.085000000
C    -1.551000000     3.400000000     3.168000000
C    -1.983000000     4.083000000     2.073000000
H    -1.559000000     5.031000000     1.755000000
C    -2.088000000     2.106000000     3.439000000
C    -3.225000000     1.540000000     2.736000000
H    -3.534000000     0.529000000     2.986000000
C    -3.693000000     2.317000000     1.645000000
O    -4.457000000     1.672000000     0.747000000
C    -3.904000000     1.130000000    -0.481000000
C    -4.288000000    -0.318000000    -0.762000000
C    -4.472000000    -0.888000000    -2.019000000
H    -4.252000000    -0.241000000    -2.865000000
C    -4.364000000    -1.143000000     0.327000000
H    -4.016000000    -0.757000000     1.282000000
O    -4.202000000     2.020000000    -1.554000000
H    -2.807000000     1.097000000    -0.412000000
C    -3.066000000     3.526000000     1.266000000
C    -3.499000000     4.324000000     0.007000000
H    -3.160000000     5.342000000     0.210000000
H    -4.566000000     4.279000000    -0.223000000
C    -2.712000000     3.926000000    -1.201000000
C    -1.554000000     4.593000000    -1.593000000
H    -1.332000000     5.491000000    -1.022000000
C    -3.200000000     2.843000000    -1.979000000
C    -2.577000000     2.513000000    -3.170000000
H    -2.913000000     1.686000000    -3.791000000
C    -1.347000000     3.081000000    -3.457000000
O    -0.619000000     2.456000000    -4.493000000
C     0.363000000     1.537000000    -4.109000000
C     0.358000000     0.335000000    -5.050000000
C    -0.787000000    -0.101000000    -5.627000000
H    -1.685000000     0.506000000    -5.707000000
C     1.450000000    -0.506000000    -5.110000000
H     2.292000000    -0.193000000    -4.497000000
O     1.675000000     2.142000000    -4.127000000
H     0.178000000     1.218000000    -3.073000000
C    -0.859000000     4.143000000    -2.714000000
C     0.479000000     4.746000000    -3.000000000
H     0.484000000     5.771000000    -2.624000000
H     0.727000000     4.916000000    -4.050000000
C     1.508000000     3.867000000    -2.328000000
C     2.059000000     2.665000000    -2.920000000
C     3.109000000     2.036000000    -2.261000000
H     3.552000000     1.195000000    -2.788000000
C     3.562000000     2.450000000    -1.015000000
O     4.447000000     1.585000000    -0.390000000
C     3.884000000     0.838000000     0.690000000
H     2.791000000     0.876000000     0.570000000
C     4.440000000    -0.574000000     0.739000000
C     5.006000000    -1.237000000     1.832000000
H     5.144000000    -0.762000000     2.800000000
C     4.374000000    -1.237000000    -0.470000000
H     3.736000000    -0.779000000    -1.223000000
C     4.733000000    -2.567000000    -0.577000000
O     4.647000000    -3.239000000    -1.798000000
C     5.242000000    -3.249000000     0.478000000
H     5.428000000    -4.310000000     0.331000000
C     5.377000000    -2.608000000     1.722000000
O     5.707000000    -3.297000000     2.828000000
C     4.914000000    -3.291000000     4.011000000
C     3.596000000    -3.509000000     4.092000000
H     2.955000000    -3.729000000     3.242000000
C     5.627000000    -2.854000000     5.138000000
H     6.699000000    -2.690000000     5.068000000
C     5.062000000    -2.995000000     6.446000000
H     5.620000000    -2.814000000     7.360000000
C     3.745000000    -3.332000000     6.532000000
H     3.275000000    -3.379000000     7.511000000
C     3.016000000    -3.583000000     5.353000000
O     1.657000000    -3.916000000     5.402000000
C     0.643000000    -2.975000000     5.361000000
C    -0.617000000    -3.490000000     5.628000000
H    -0.667000000    -4.451000000     6.132000000
C    -1.705000000    -2.660000000     5.556000000
O    -2.913000000    -3.269000000     5.713000000
C    -3.905000000    -3.011000000     4.800000000
C    -3.772000000    -3.304000000     3.444000000
H    -2.852000000    -3.682000000     3.005000000
C    -5.125000000    -2.532000000     5.358000000
H    -5.300000000    -2.469000000     6.429000000
C    -6.103000000    -2.339000000     4.443000000
H    -7.072000000    -2.013000000     4.813000000
C    -5.995000000    -2.456000000     3.039000000
H    -6.766000000    -2.426000000     2.273000000
C    -4.846000000    -3.044000000     2.552000000
O    -4.815000000    -3.407000000     1.277000000
C    -4.684000000    -2.487000000     0.208000000
C    -4.848000000    -3.042000000    -1.101000000
H    -5.263000000    -4.045000000    -1.143000000
C    -4.703000000    -2.234000000    -2.203000000
O    -4.881000000    -2.809000000    -3.426000000
C    -4.571000000    -2.077000000    -4.566000000
C    -3.278000000    -2.189000000    -5.094000000
H    -2.493000000    -2.772000000    -4.620000000
C    -5.639000000    -1.504000000    -5.272000000
H    -6.644000000    -1.544000000    -4.858000000
C    -5.326000000    -0.817000000    -6.466000000
H    -6.138000000    -0.275000000    -6.944000000
C    -4.005000000    -0.854000000    -6.939000000
H    -3.776000000    -0.361000000    -7.881000000
C    -3.027000000    -1.589000000    -6.351000000
O    -1.811000000    -1.730000000    -7.022000000
C    -0.733000000    -1.274000000    -6.397000000
C     0.403000000    -2.009000000    -6.605000000
H     0.393000000    -2.864000000    -7.277000000
C     1.549000000    -1.625000000    -5.963000000
O     2.701000000    -2.362000000    -6.070000000
C     3.738000000    -2.258000000    -5.238000000
C     4.796000000    -1.419000000    -5.597000000
H     4.801000000    -0.947000000    -6.576000000
C     5.794000000    -1.192000000    -4.654000000
H     6.692000000    -0.604000000    -4.823000000
C     5.747000000    -1.826000000    -3.410000000
H     6.578000000    -1.696000000    -2.721000000
C     4.681000000    -2.628000000    -3.058000000
C     3.703000000    -2.926000000    -4.035000000
H     2.840000000    -3.561000000    -3.851000000
C     1.093000000    -2.115000000     0.099000000
H     1.759000000    -2.759000000     0.666000000
C     0.757000000    -0.830000000     0.500000000
H     1.233000000    -0.319000000     1.333000000
C    -0.052000000     0.009000000    -0.288000000
H    -0.211000000     1.014000000    -0.010000000
C    -0.727000000    -0.529000000    -1.363000000
H    -1.414000000     0.099000000    -1.925000000
C    -0.457000000    -1.836000000    -1.750000000
H    -0.935000000    -2.274000000    -2.623000000
C     0.477000000    -2.658000000    -1.077000000
C     0.643000000    -4.057000000    -1.619000000
O    -0.001000000    -4.440000000    -2.603000000
O     1.205000000    -4.868000000    -0.938000000
O    -0.818000000    -5.889000000    -6.459000000
H    -1.704000000    -5.628000000    -6.712000000
H    -0.406000000    -6.162000000    -7.279000000
O     0.194000000    -4.984000000     2.620000000
H    -0.458000000    -4.471000000     2.143000000
H    -0.078000000    -4.926000000     3.536000000
O     4.807000000    -7.507000000    -3.877000000
H     5.520000000    -7.257000000    -3.289000000
H     4.028000000    -7.105000000    -3.494000000
O     1.358000000    -5.686000000    -4.568000000
H     0.646000000    -5.822000000    -5.193000000
H     0.934000000    -5.295000000    -3.804000000
O     0.830000000   -10.303000000    -3.883000000
H     0.211000000   -11.033000000    -3.881000000
H     0.767000000    -9.934000000    -3.002000000
O    -3.763000000    -6.226000000     0.999000000
H    -3.343000000    -5.410000000     0.728000000
H    -3.297000000    -6.483000000     1.795000000
O    -2.122000000    -8.634000000    -0.212000000
H    -1.321000000    -8.110000000    -0.206000000
H    -2.788000000    -8.048000000    -0.571000000
O     2.669000000    -5.607000000     1.416000000
H     2.313000000    -5.262000000     0.597000000
H     1.986000000    -5.438000000     2.064000000
O    -2.208000000    -5.528000000    -1.547000000
H    -2.849000000    -5.742000000    -2.226000000
H    -1.493000000    -5.101000000    -2.019000000
O     2.573000000    -8.270000000     1.952000000
H     3.190000000    -8.679000000     1.345000000
H     2.731000000    -7.331000000     1.859000000
O     0.777000000    -9.934000000    -1.169000000
H     1.557000000    -9.476000000    -0.856000000
H     0.055000000    -9.540000000    -0.678000000
O    -5.336000000    -6.831000000    -1.182000000
H    -5.807000000    -7.338000000    -0.521000000
H    -4.684000000    -6.337000000    -0.685000000
O     5.441000000    -6.589000000     1.808000000
H     5.561000000    -7.514000000     2.022000000
H     4.493000000    -6.482000000     1.728000000
O     3.338000000    -8.870000000    -0.826000000
H     3.047000000    -8.054000000    -1.233000000
H     4.226000000    -9.000000000    -1.161000000
O     4.039000000    -4.826000000    -6.647000000
H     4.045000000    -5.075000000    -7.571000000
H     3.159000000    -4.480000000    -6.497000000
O     2.889000000    -6.349000000    -2.266000000
H     2.427000000    -6.046000000    -3.048000000
H     2.593000000    -5.762000000    -1.570000000
O    -1.689000000    -4.064000000     0.787000000
H    -1.512000000    -4.724000000     0.116000000
H    -1.359000000    -3.247000000     0.412000000
O    -2.560000000    -6.331000000    -4.235000000
H    -2.412000000    -7.246000000    -4.472000000
H    -1.691000000    -5.932000000    -4.264000000
O     0.133000000    -7.203000000     0.176000000
H     0.360000000    -6.476000000    -0.403000000
H     0.509000000    -6.962000000     1.022000000
