215
-1450.36280
C    -1.391000000    -2.565000000     4.318000000
H    -2.442000000    -2.320000000     4.196000000
C    -0.431000000    -1.578000000     4.296000000
C     0.886000000    -2.032000000     4.382000000
H     1.696000000    -1.318000000     4.257000000
C    -0.750000000    -0.101000000     4.032000000
O    -2.159000000     0.104000000     4.236000000
H    -0.582000000    -0.052000000     2.946000000
O     0.154000000     0.774000000     4.731000000
C     0.666000000     1.831000000     4.038000000
C     1.901000000     1.638000000     3.442000000
H     2.561000000     0.797000000     3.638000000
C     2.457000000     2.648000000     2.639000000
O     3.733000000     2.548000000     2.105000000
C     1.675000000     3.825000000     2.547000000
C     2.212000000     4.905000000     1.526000000
H     1.847000000     5.912000000     1.738000000
C     1.971000000     4.456000000     0.144000000
C     0.746000000     4.818000000    -0.452000000
H     0.046000000     5.426000000     0.115000000
H     3.297000000     4.894000000     1.643000000
C     0.387000000     3.938000000     3.062000000
H    -0.139000000     4.848000000     2.786000000
C    -0.207000000     2.944000000     3.816000000
C    -1.602000000     2.976000000     4.292000000
H    -1.960000000     4.005000000     4.368000000
H    -1.691000000     2.640000000     5.327000000
C    -2.574000000     2.329000000     3.322000000
C    -3.183000000     3.005000000     2.327000000
H    -2.939000000     4.040000000     2.101000000
C    -2.778000000     0.941000000     3.358000000
C    -3.669000000     0.352000000     2.516000000
H    -3.873000000    -0.697000000     2.718000000
C    -4.384000000     1.093000000     1.553000000
O    -5.157000000     0.459000000     0.610000000
C    -4.598000000     0.130000000    -0.670000000
C    -4.829000000    -1.340000000    -1.047000000
C    -5.049000000    -1.741000000    -2.409000000
H    -5.288000000    -0.965000000    -3.131000000
C    -4.730000000    -2.361000000    -0.085000000
H    -4.616000000    -2.047000000     0.949000000
O    -4.961000000     1.052000000    -1.624000000
H    -3.518000000     0.235000000    -0.488000000
C    -4.051000000     2.412000000     1.409000000
C    -4.641000000     3.279000000     0.246000000
H    -4.659000000     4.298000000     0.637000000
H    -5.691000000     3.048000000     0.053000000
C    -3.822000000     3.060000000    -0.985000000
C    -2.768000000     3.931000000    -1.154000000
H    -2.805000000     4.807000000    -0.512000000
C    -3.998000000     1.996000000    -1.821000000
C    -3.092000000     1.826000000    -2.868000000
H    -3.280000000     0.984000000    -3.528000000
C    -2.042000000     2.712000000    -3.129000000
O    -1.247000000     2.447000000    -4.166000000
C     0.124000000     2.004000000    -3.776000000
C     0.565000000     0.702000000    -4.564000000
C    -0.293000000    -0.446000000    -4.760000000
H    -1.336000000    -0.429000000    -4.456000000
C     1.964000000     0.488000000    -4.695000000
H     2.570000000     1.391000000    -4.691000000
O     1.038000000     3.088000000    -3.800000000
H     0.056000000     1.794000000    -2.698000000
C    -1.965000000     3.826000000    -2.255000000
C    -0.912000000     4.808000000    -2.471000000
H    -1.144000000     5.783000000    -2.037000000
H    -0.717000000     4.939000000    -3.537000000
C     0.401000000     4.387000000    -1.770000000
C     1.291000000     3.648000000    -2.537000000
C     2.567000000     3.353000000    -1.928000000
H     3.284000000     2.759000000    -2.489000000
C     2.853000000     3.682000000    -0.620000000
O     3.905000000     3.020000000    -0.088000000
C     3.638000000     1.920000000     0.803000000
H     2.645000000     1.576000000     0.477000000
C     4.636000000     0.782000000     0.656000000
C     4.946000000     0.095000000     1.849000000
H     4.476000000     0.356000000     2.794000000
C     5.243000000     0.463000000    -0.556000000
H     5.000000000     1.095000000    -1.406000000
C     6.367000000    -0.412000000    -0.548000000
O     6.987000000    -0.802000000    -1.748000000
C     6.775000000    -1.079000000     0.609000000
H     7.639000000    -1.738000000     0.592000000
C     6.022000000    -0.802000000     1.787000000
O     6.471000000    -1.411000000     2.959000000
C     5.589000000    -1.693000000     4.016000000
C     4.566000000    -2.595000000     3.868000000
H     4.532000000    -3.172000000     2.948000000
C     5.833000000    -1.031000000     5.213000000
H     6.690000000    -0.363000000     5.219000000
C     5.047000000    -1.268000000     6.321000000
H     5.189000000    -0.673000000     7.220000000
C     3.901000000    -2.027000000     6.122000000
H     3.261000000    -2.186000000     6.986000000
C     3.757000000    -2.875000000     4.951000000
O     2.618000000    -3.647000000     4.619000000
C     1.246000000    -3.353000000     4.597000000
C     0.252000000    -4.300000000     4.679000000
H     0.466000000    -5.361000000     4.783000000
C    -1.091000000    -3.874000000     4.480000000
O    -2.085000000    -4.801000000     4.569000000
C    -3.307000000    -4.644000000     3.986000000
C    -3.422000000    -4.729000000     2.539000000
H    -2.601000000    -5.005000000     1.882000000
C    -4.412000000    -4.229000000     4.724000000
H    -4.372000000    -4.096000000     5.802000000
C    -5.661000000    -4.010000000     4.047000000
H    -6.522000000    -3.733000000     4.649000000
C    -5.788000000    -4.182000000     2.642000000
H    -6.754000000    -4.048000000     2.163000000
C    -4.600000000    -4.525000000     1.897000000
O    -4.596000000    -4.659000000     0.519000000
C    -4.776000000    -3.725000000    -0.476000000
C    -4.986000000    -4.086000000    -1.768000000
H    -5.003000000    -5.135000000    -2.054000000
C    -5.181000000    -3.086000000    -2.776000000
O    -5.294000000    -3.310000000    -4.129000000
C    -4.248000000    -2.922000000    -4.988000000
C    -2.896000000    -2.866000000    -4.644000000
H    -2.628000000    -3.056000000    -3.608000000
C    -4.541000000    -2.682000000    -6.322000000
H    -5.559000000    -2.846000000    -6.664000000
C    -3.579000000    -2.294000000    -7.284000000
H    -3.826000000    -2.218000000    -8.340000000
C    -2.268000000    -2.152000000    -6.884000000
H    -1.505000000    -1.851000000    -7.598000000
C    -1.950000000    -2.545000000    -5.572000000
O    -0.632000000    -2.674000000    -5.215000000
C     0.193000000    -1.613000000    -5.256000000
C     1.580000000    -1.728000000    -5.286000000
H     1.959000000    -2.738000000    -5.418000000
C     2.499000000    -0.757000000    -5.061000000
O     3.755000000    -1.147000000    -5.381000000
C     4.876000000    -0.502000000    -4.896000000
C     5.588000000     0.499000000    -5.613000000
H     5.216000000     0.690000000    -6.616000000
C     6.717000000     1.068000000    -5.005000000
H     7.374000000     1.821000000    -5.434000000
C     7.103000000     0.660000000    -3.683000000
H     7.946000000     1.182000000    -3.236000000
C     6.487000000    -0.356000000    -2.982000000
C     5.360000000    -0.891000000    -3.613000000
H     4.817000000    -1.713000000    -3.153000000
C     0.840000000    -2.351000000     1.154000000
H     1.427000000    -2.788000000     1.958000000
C     0.908000000    -0.981000000     1.025000000
H     1.562000000    -0.390000000     1.662000000
C     0.038000000    -0.378000000     0.101000000
H     0.021000000     0.680000000    -0.026000000
C    -0.896000000    -1.151000000    -0.602000000
H    -1.563000000    -0.631000000    -1.285000000
C    -0.893000000    -2.583000000    -0.548000000
H    -1.607000000    -3.066000000    -1.211000000
C    -0.048000000    -3.173000000     0.429000000
C    -0.010000000    -4.685000000     0.631000000
O    -0.752000000    -5.415000000    -0.087000000
O     0.687000000    -5.178000000     1.521000000
O    -3.081000000    -9.412000000     1.733000000
H    -3.654000000    -8.850000000     2.256000000
H    -2.792000000   -10.091000000     2.343000000
O     2.696000000    -8.678000000     3.921000000
H     3.051000000    -8.052000000     4.552000000
H     1.913000000    -8.250000000     3.574000000
O    -1.864000000    -6.474000000    -4.461000000
H    -1.212000000    -5.964000000    -3.981000000
H    -1.524000000    -7.369000000    -4.450000000
O     3.037000000    -9.912000000     1.575000000
H     2.741000000    -9.252000000     0.948000000
H     2.922000000    -9.499000000     2.431000000
O    -2.795000000    -6.475000000    -1.557000000
H    -2.108000000    -6.004000000    -1.086000000
H    -2.445000000    -6.591000000    -2.440000000
O     1.982000000    -7.751000000     0.017000000
H     2.220000000    -6.851000000     0.241000000
H     1.048000000    -7.810000000     0.220000000
O     4.143000000    -5.949000000     4.003000000
H     3.528000000    -5.700000000     4.692000000
H     4.665000000    -6.652000000     4.390000000
O     0.107000000   -10.083000000    -0.238000000
H    -0.585000000   -10.704000000    -0.469000000
H    -0.352000000    -9.365000000     0.198000000
O     1.807000000    -3.318000000    -2.410000000
H     1.260000000    -2.664000000    -1.976000000
H     2.296000000    -2.824000000    -3.067000000
O    -0.098000000    -5.297000000    -2.805000000
H    -0.147000000    -5.383000000    -1.853000000
H     0.697000000    -4.788000000    -2.959000000
O    -0.944000000    -8.631000000    -3.145000000
H    -1.459000000    -9.207000000    -2.581000000
H    -0.661000000    -9.193000000    -3.867000000
O     2.160000000    -7.932000000    -3.344000000
H     2.394000000    -7.862000000    -2.418000000
H     1.203000000    -7.943000000    -3.349000000
O     4.635000000    -4.336000000    -1.466000000
H     3.940000000    -4.453000000    -2.114000000
H     4.178000000    -4.315000000    -0.625000000
O    -0.854000000    -7.866000000     0.828000000
H    -1.809000000    -7.922000000     0.855000000
H    -0.675000000    -6.991000000     0.484000000
O    -1.501000000    -7.991000000     5.084000000
H    -1.866000000    -7.106000000     5.079000000
H    -0.981000000    -8.040000000     4.282000000
O     5.556000000    -7.732000000     1.624000000
H     4.797000000    -7.186000000     1.829000000
H     5.437000000    -8.519000000     2.156000000
O    -4.933000000    -7.610000000    -0.322000000
H    -4.831000000    -8.543000000    -0.511000000
H    -4.216000000    -7.190000000    -0.796000000
O     3.400000000    -4.898000000     1.246000000
H     3.546000000    -4.948000000     2.190000000
H     2.448000000    -4.873000000     1.152000000
O     0.580000000    -7.395000000     2.944000000
H     0.011000000    -7.836000000     2.314000000
H     0.689000000    -6.512000000     2.591000000
