215
-1449.97364
C    -0.545000000    -1.975000000     4.102000000
H    -1.490000000    -1.702000000     3.641000000
C     0.381000000    -0.899000000     4.295000000
C     1.625000000    -1.207000000     4.841000000
H     2.304000000    -0.359000000     4.865000000
C    -0.059000000     0.566000000     4.060000000
O    -1.417000000     0.812000000     4.570000000
H    -0.190000000     0.691000000     2.975000000
O     0.824000000     1.606000000     4.556000000
C     1.327000000     2.497000000     3.629000000
C     2.594000000     2.430000000     3.044000000
H     3.214000000     1.596000000     3.362000000
C     2.958000000     3.256000000     1.946000000
O     4.008000000     3.006000000     1.125000000
C     2.070000000     4.276000000     1.539000000
C     2.401000000     5.164000000     0.340000000
H     1.870000000     6.109000000     0.472000000
C     1.910000000     4.505000000    -1.029000000
C     0.645000000     4.808000000    -1.546000000
H     0.004000000     5.559000000    -1.093000000
H     3.484000000     5.293000000     0.289000000
C     0.923000000     4.480000000     2.219000000
H     0.255000000     5.327000000     2.089000000
C     0.462000000     3.553000000     3.209000000
C    -0.871000000     3.774000000     3.902000000
H    -1.044000000     4.852000000     3.893000000
H    -0.743000000     3.635000000     4.977000000
C    -2.018000000     2.916000000     3.365000000
C    -2.827000000     3.434000000     2.350000000
H    -2.582000000     4.427000000     1.981000000
C    -2.236000000     1.569000000     3.740000000
C    -3.245000000     0.849000000     3.152000000
H    -3.392000000    -0.152000000     3.547000000
C    -4.029000000     1.392000000     2.107000000
O    -4.907000000     0.544000000     1.461000000
C    -4.390000000    -0.069000000     0.143000000
C    -4.691000000    -1.583000000    -0.029000000
C    -4.924000000    -2.196000000    -1.275000000
H    -4.848000000    -1.655000000    -2.215000000
C    -4.713000000    -2.401000000     1.070000000
H    -4.656000000    -1.926000000     2.047000000
O    -4.907000000     0.704000000    -0.962000000
H    -3.293000000    -0.032000000     0.067000000
C    -3.743000000     2.657000000     1.640000000
C    -4.534000000     3.180000000     0.467000000
H    -4.775000000     4.237000000     0.606000000
H    -5.560000000     2.804000000     0.474000000
C    -3.822000000     2.879000000    -0.888000000
C    -2.982000000     3.772000000    -1.533000000
H    -2.740000000     4.706000000    -1.033000000
C    -4.160000000     1.678000000    -1.557000000
C    -3.511000000     1.322000000    -2.742000000
H    -3.690000000     0.401000000    -3.292000000
C    -2.511000000     2.125000000    -3.274000000
O    -1.731000000     1.710000000    -4.299000000
C    -0.347000000     1.343000000    -3.971000000
C     0.029000000     0.042000000    -4.666000000
C    -0.968000000    -0.970000000    -4.736000000
H    -1.990000000    -0.720000000    -4.462000000
C     1.295000000    -0.303000000    -4.934000000
H     2.049000000     0.447000000    -4.712000000
O     0.579000000     2.409000000    -4.352000000
H    -0.256000000     1.152000000    -2.891000000
C    -2.290000000     3.394000000    -2.665000000
C    -1.260000000     4.294000000    -3.195000000
H    -1.542000000     5.334000000    -3.023000000
H    -1.179000000     4.175000000    -4.277000000
C     0.176000000     4.093000000    -2.656000000
C     0.986000000     3.186000000    -3.302000000
C     2.260000000     2.956000000    -2.842000000
H     2.905000000     2.196000000    -3.274000000
C     2.749000000     3.586000000    -1.679000000
O     3.909000000     3.052000000    -1.169000000
C     3.722000000     2.182000000     0.006000000
H     2.659000000     1.905000000    -0.039000000
C     4.672000000     0.951000000    -0.005000000
C     5.076000000     0.343000000     1.193000000
H     4.770000000     0.621000000     2.199000000
C     5.042000000     0.435000000    -1.195000000
H     4.875000000     0.910000000    -2.158000000
C     5.958000000    -0.582000000    -1.284000000
O     6.482000000    -0.984000000    -2.509000000
C     6.466000000    -1.204000000    -0.105000000
H     7.227000000    -1.977000000    -0.178000000
C     6.014000000    -0.714000000     1.117000000
O     6.554000000    -1.419000000     2.187000000
C     6.052000000    -1.383000000     3.496000000
C     4.779000000    -1.939000000     3.820000000
H     4.237000000    -2.442000000     3.023000000
C     6.846000000    -0.856000000     4.519000000
H     7.821000000    -0.486000000     4.213000000
C     6.445000000    -0.938000000     5.809000000
H     7.146000000    -0.634000000     6.582000000
C     5.192000000    -1.477000000     6.174000000
H     4.922000000    -1.666000000     7.210000000
C     4.366000000    -1.989000000     5.176000000
O     3.245000000    -2.704000000     5.570000000
C     2.051000000    -2.512000000     5.000000000
C     1.207000000    -3.555000000     4.711000000
H     1.525000000    -4.591000000     4.801000000
C    -0.130000000    -3.295000000     4.321000000
O    -1.057000000    -4.335000000     4.130000000
C    -2.380000000    -4.208000000     4.208000000
C    -3.175000000    -4.444000000     3.115000000
H    -2.646000000    -4.425000000     2.165000000
C    -2.940000000    -3.919000000     5.482000000
H    -2.294000000    -3.727000000     6.335000000
C    -4.347000000    -3.817000000     5.514000000
H    -4.868000000    -3.510000000     6.418000000
C    -5.102000000    -4.096000000     4.411000000
H    -6.187000000    -4.050000000     4.453000000
C    -4.588000000    -4.315000000     3.192000000
O    -5.417000000    -4.453000000     2.160000000
C    -5.171000000    -3.702000000     0.988000000
C    -5.462000000    -4.305000000    -0.250000000
H    -5.861000000    -5.316000000    -0.258000000
C    -5.362000000    -3.560000000    -1.392000000
O    -5.409000000    -4.209000000    -2.591000000
C    -4.957000000    -3.679000000    -3.762000000
C    -3.635000000    -3.620000000    -4.000000000
H    -3.031000000    -4.196000000    -3.303000000
C    -5.910000000    -3.091000000    -4.681000000
H    -6.955000000    -2.984000000    -4.404000000
C    -5.430000000    -2.523000000    -5.881000000
H    -6.140000000    -2.228000000    -6.649000000
C    -4.037000000    -2.590000000    -6.095000000
H    -3.611000000    -2.227000000    -7.027000000
C    -3.102000000    -3.115000000    -5.170000000
O    -1.711000000    -3.210000000    -5.423000000
C    -0.718000000    -2.244000000    -5.260000000
C     0.622000000    -2.524000000    -5.549000000
H     0.784000000    -3.516000000    -5.963000000
C     1.638000000    -1.581000000    -5.371000000
O     2.928000000    -1.978000000    -5.546000000
C     4.027000000    -1.210000000    -5.250000000
C     4.442000000    -0.218000000    -6.071000000
H     3.910000000     0.040000000    -6.983000000
C     5.512000000     0.530000000    -5.671000000
H     5.785000000     1.293000000    -6.396000000
C     6.217000000     0.301000000    -4.540000000
H     7.213000000     0.649000000    -4.278000000
C     5.717000000    -0.645000000    -3.676000000
C     4.596000000    -1.410000000    -4.016000000
H     4.234000000    -2.190000000    -3.351000000
C     0.444000000    -2.484000000     0.641000000
H     1.106000000    -2.926000000     1.382000000
C     0.302000000    -1.073000000     0.736000000
H     0.880000000    -0.641000000     1.549000000
C    -0.566000000    -0.400000000    -0.069000000
H    -0.809000000     0.616000000     0.142000000
C    -1.266000000    -1.168000000    -1.066000000
H    -1.982000000    -0.674000000    -1.719000000
C    -1.119000000    -2.590000000    -1.110000000
H    -1.646000000    -3.108000000    -1.908000000
C    -0.352000000    -3.234000000    -0.247000000
C    -0.147000000    -4.742000000    -0.121000000
O    -0.835000000    -5.533000000    -0.714000000
O     0.770000000    -5.219000000     0.530000000
O     3.538000000    -6.328000000     3.560000000
H     4.128000000    -7.066000000     3.715000000
H     2.877000000    -6.401000000     4.249000000
O     3.059000000    -7.899000000     0.759000000
H     2.562000000    -7.257000000     1.266000000
H     2.400000000    -8.347000000     0.228000000
O    -3.205000000    -6.424000000    -0.679000000
H    -2.275000000    -6.196000000    -0.660000000
H    -3.573000000    -5.872000000    -1.369000000
O     2.408000000    -5.612000000    -1.415000000
H     2.876000000    -4.824000000    -1.141000000
H     1.749000000    -5.749000000    -0.735000000
O    -2.996000000    -7.685000000     2.710000000
H    -3.502000000    -7.305000000     1.992000000
H    -2.117000000    -7.799000000     2.350000000
O     2.077000000    -1.292000000    -1.859000000
H     1.360000000    -1.529000000    -1.271000000
H     1.650000000    -1.110000000    -2.696000000
O    -2.047000000    -6.544000000    -5.414000000
H    -1.452000000    -6.142000000    -6.047000000
H    -1.549000000    -6.564000000    -4.597000000
O    -0.953000000    -6.992000000    -3.018000000
H    -1.287000000    -7.855000000    -2.772000000
H    -1.041000000    -6.465000000    -2.224000000
O    -2.142000000    -9.290000000    -2.173000000
H    -2.197000000    -9.933000000    -1.466000000
H    -2.987000000    -9.351000000    -2.619000000
O     3.876000000    -3.299000000    -0.903000000
H     3.393000000    -2.546000000    -1.244000000
H     3.741000000    -3.260000000     0.044000000
O     0.627000000    -9.173000000     3.944000000
H     1.173000000    -8.955000000     4.700000000
H     0.399000000    -8.325000000     3.561000000
O    -0.605000000    -7.876000000     1.091000000
H    -0.390000000    -7.132000000     0.529000000
H    -0.002000000    -8.566000000     0.814000000
O     5.868000000    -4.900000000     0.942000000
H     4.999000000    -5.289000000     1.041000000
H     5.807000000    -4.378000000     0.142000000
O     1.100000000    -9.924000000     0.184000000
H     1.485000000   -10.281000000     0.984000000
H     0.503000000   -10.608000000    -0.120000000
O    -4.759000000    -8.511000000     0.385000000
H    -4.223000000    -9.284000000     0.209000000
H    -4.331000000    -7.807000000    -0.102000000
O     3.839000000    -8.190000000    -2.300000000
H     3.280000000    -8.626000000    -2.943000000
H     3.256000000    -7.578000000    -1.851000000
O     3.165000000    -4.383000000     1.588000000
H     2.237000000    -4.616000000     1.545000000
H     3.484000000    -4.815000000     2.380000000
O     0.362000000    -6.546000000     3.374000000
H    -0.261000000    -5.887000000     3.679000000
H     0.409000000    -6.411000000     2.428000000
O     1.423000000    -6.130000000    -3.842000000
H     1.920000000    -6.003000000    -3.034000000
H     0.530000000    -6.313000000    -3.548000000
