215
-1465.16681
C    -0.794000000    -1.700000000     4.784000000
H    -1.786000000    -1.609000000     4.349000000
C     0.092000000    -0.613000000     4.942000000
C     1.415000000    -0.912000000     5.366000000
H     2.119000000    -0.084000000     5.400000000
C    -0.248000000     0.732000000     4.299000000
O    -1.528000000     1.153000000     4.782000000
H    -0.202000000     0.495000000     3.226000000
O     0.751000000     1.739000000     4.640000000
C     1.187000000     2.595000000     3.650000000
C     2.424000000     2.380000000     3.041000000
H     2.918000000     1.447000000     3.297000000
C     2.781000000     3.169000000     1.994000000
O     3.812000000     2.662000000     1.228000000
C     1.979000000     4.187000000     1.489000000
C     2.415000000     4.937000000     0.268000000
H     2.094000000     5.981000000     0.246000000
C     1.966000000     4.261000000    -1.033000000
C     0.688000000     4.481000000    -1.484000000
H    -0.054000000     5.036000000    -0.915000000
H     3.504000000     5.011000000     0.316000000
C     0.765000000     4.474000000     2.165000000
H     0.198000000     5.358000000     1.884000000
C     0.375000000     3.643000000     3.272000000
C    -0.940000000     3.920000000     3.965000000
H    -1.176000000     4.983000000     3.886000000
H    -0.781000000     3.800000000     5.039000000
C    -2.114000000     3.041000000     3.390000000
C    -2.718000000     3.477000000     2.253000000
H    -2.400000000     4.437000000     1.855000000
C    -2.343000000     1.753000000     3.848000000
C    -3.302000000     0.959000000     3.234000000
H    -3.539000000    -0.045000000     3.578000000
C    -3.974000000     1.412000000     2.077000000
O    -4.788000000     0.525000000     1.351000000
C    -4.223000000     0.136000000     0.110000000
C    -4.494000000    -1.416000000    -0.076000000
C    -4.555000000    -1.959000000    -1.357000000
H    -4.602000000    -1.259000000    -2.187000000
C    -4.500000000    -2.303000000     1.009000000
H    -4.143000000    -2.054000000     2.005000000
O    -4.841000000     0.892000000    -0.956000000
H    -3.140000000     0.209000000     0.290000000
C    -3.692000000     2.673000000     1.570000000
C    -4.360000000     3.286000000     0.394000000
H    -4.530000000     4.360000000     0.493000000
H    -5.358000000     2.844000000     0.424000000
C    -3.648000000     2.995000000    -0.912000000
C    -2.789000000     3.906000000    -1.591000000
H    -2.588000000     4.902000000    -1.206000000
C    -3.994000000     1.774000000    -1.589000000
C    -3.323000000     1.429000000    -2.797000000
H    -3.530000000     0.465000000    -3.253000000
C    -2.521000000     2.338000000    -3.406000000
O    -1.729000000     1.852000000    -4.493000000
C    -0.340000000     1.435000000    -4.273000000
C     0.001000000     0.102000000    -4.949000000
C    -1.032000000    -0.798000000    -5.230000000
H    -2.036000000    -0.537000000    -4.905000000
C     1.302000000    -0.261000000    -5.217000000
H     2.181000000     0.310000000    -4.928000000
O     0.674000000     2.481000000    -4.496000000
H    -0.313000000     1.124000000    -3.218000000
C    -2.180000000     3.544000000    -2.775000000
C    -1.088000000     4.419000000    -3.367000000
H    -1.394000000     5.446000000    -3.158000000
H    -0.982000000     4.286000000    -4.446000000
C     0.271000000     4.020000000    -2.740000000
C     1.098000000     3.127000000    -3.390000000
C     2.381000000     2.844000000    -2.919000000
H     3.077000000     2.216000000    -3.470000000
C     2.767000000     3.304000000    -1.670000000
O     3.944000000     2.806000000    -1.150000000
C     3.680000000     1.893000000     0.031000000
H     2.647000000     1.516000000     0.053000000
C     4.519000000     0.657000000     0.088000000
C     4.885000000     0.028000000     1.280000000
H     4.632000000     0.450000000     2.249000000
C     4.808000000    -0.002000000    -1.191000000
H     4.419000000     0.401000000    -2.122000000
C     5.547000000    -1.156000000    -1.211000000
O     5.877000000    -1.786000000    -2.375000000
C     5.938000000    -1.748000000    -0.001000000
H     6.580000000    -2.625000000     0.011000000
C     5.536000000    -1.218000000     1.226000000
O     6.065000000    -1.768000000     2.400000000
C     5.676000000    -1.582000000     3.738000000
C     4.360000000    -1.881000000     4.193000000
H     3.576000000    -2.117000000     3.478000000
C     6.705000000    -1.325000000     4.617000000
H     7.742000000    -1.194000000     4.319000000
C     6.451000000    -1.149000000     5.939000000
H     7.246000000    -0.898000000     6.637000000
C     5.183000000    -1.506000000     6.452000000
H     5.018000000    -1.546000000     7.525000000
C     4.137000000    -1.815000000     5.610000000
O     3.010000000    -2.420000000     6.148000000
C     1.728000000    -2.217000000     5.698000000
C     0.846000000    -3.300000000     5.566000000
H     1.169000000    -4.286000000     5.892000000
C    -0.410000000    -3.006000000     5.099000000
O    -1.304000000    -4.015000000     5.173000000
C    -2.668000000    -3.972000000     4.767000000
C    -2.927000000    -4.304000000     3.446000000
H    -2.127000000    -4.290000000     2.710000000
C    -3.712000000    -3.669000000     5.698000000
H    -3.432000000    -3.477000000     6.731000000
C    -4.992000000    -3.604000000     5.275000000
H    -5.807000000    -3.370000000     5.955000000
C    -5.333000000    -4.009000000     3.983000000
H    -6.348000000    -4.052000000     3.597000000
C    -4.310000000    -4.379000000     3.094000000
O    -4.727000000    -4.620000000     1.807000000
C    -4.677000000    -3.671000000     0.776000000
C    -4.863000000    -4.143000000    -0.511000000
H    -5.086000000    -5.201000000    -0.627000000
C    -4.795000000    -3.340000000    -1.569000000
O    -4.973000000    -3.904000000    -2.810000000
C    -4.592000000    -3.325000000    -4.008000000
C    -3.273000000    -3.375000000    -4.448000000
H    -2.606000000    -3.920000000    -3.785000000
C    -5.519000000    -2.590000000    -4.746000000
H    -6.562000000    -2.662000000    -4.448000000
C    -5.213000000    -2.122000000    -5.987000000
H    -5.965000000    -1.616000000    -6.586000000
C    -3.891000000    -2.217000000    -6.443000000
H    -3.616000000    -1.928000000    -7.454000000
C    -2.943000000    -2.831000000    -5.677000000
O    -1.650000000    -2.882000000    -6.173000000
C    -0.740000000    -2.043000000    -5.728000000
C     0.594000000    -2.330000000    -6.099000000
H     0.885000000    -3.262000000    -6.577000000
C     1.597000000    -1.392000000    -5.866000000
O     2.894000000    -1.707000000    -6.254000000
C     4.110000000    -1.386000000    -5.517000000
C     5.017000000    -0.622000000    -6.213000000
H     4.821000000    -0.244000000    -7.213000000
C     6.217000000    -0.130000000    -5.577000000
H     6.942000000     0.428000000    -6.164000000
C     6.509000000    -0.584000000    -4.297000000
H     7.473000000    -0.388000000    -3.835000000
C     5.540000000    -1.328000000    -3.644000000
C     4.344000000    -1.672000000    -4.197000000
H     3.593000000    -2.286000000    -3.706000000
C     0.694000000    -2.149000000     1.324000000
H     1.388000000    -2.305000000     2.146000000
C     0.393000000    -0.764000000     1.012000000
H     0.964000000    -0.054000000     1.604000000
C    -0.481000000    -0.441000000     0.011000000
H    -0.599000000     0.606000000    -0.266000000
C    -1.127000000    -1.374000000    -0.670000000
H    -1.687000000    -1.027000000    -1.535000000
C    -0.921000000    -2.721000000    -0.388000000
H    -1.526000000    -3.456000000    -0.913000000
C     0.016000000    -3.153000000     0.592000000
C     0.296000000    -4.625000000     0.836000000
O    -0.436000000    -5.458000000     0.365000000
O     1.272000000    -5.006000000     1.504000000
O    -0.202000000    -6.347000000     6.641000000
H     0.598000000    -6.825000000     6.424000000
H    -0.487000000    -5.967000000     5.810000000
O     4.018000000    -4.919000000     4.861000000
H     3.408000000    -4.426000000     5.410000000
H     4.621000000    -5.328000000     5.482000000
O     2.197000000    -6.771000000    -0.607000000
H     1.680000000    -7.524000000    -0.319000000
H     2.004000000    -6.089000000     0.036000000
O     0.841000000    -8.961000000     3.254000000
H     1.707000000    -9.132000000     2.886000000
H     0.901000000    -8.074000000     3.607000000
O    -0.014000000    -8.131000000     0.523000000
H    -0.350000000    -7.235000000     0.543000000
H     0.129000000    -8.354000000     1.443000000
O    -5.266000000    -7.260000000     2.640000000
H    -6.009000000    -7.571000000     2.123000000
H    -5.113000000    -6.368000000     2.326000000
O     2.397000000    -8.831000000    -3.142000000
H     1.475000000    -8.962000000    -2.919000000
H     2.544000000    -7.894000000    -3.011000000
O     4.407000000    -4.303000000    -0.563000000
H     4.254000000    -3.358000000    -0.552000000
H     4.271000000    -4.577000000     0.344000000
O     4.992000000    -7.196000000     0.183000000
H     5.404000000    -6.753000000    -0.558000000
H     4.053000000    -7.105000000     0.025000000
O    -1.937000000    -6.754000000    -4.297000000
H    -2.630000000    -6.993000000    -3.682000000
H    -1.425000000    -6.091000000    -3.835000000
O    -2.724000000    -6.617000000    -0.428000000
H    -2.044000000    -5.991000000    -0.181000000
H    -3.064000000    -6.285000000    -1.260000000
O     2.530000000    -5.981000000    -3.095000000
H     2.552000000    -6.170000000    -2.156000000
H     3.451000000    -5.935000000    -3.352000000
O    -3.370000000    -9.303000000    -0.167000000
H    -3.808000000    -9.363000000     0.682000000
H    -3.149000000    -8.376000000    -0.257000000
O     3.071000000    -9.251000000     1.945000000
H     3.803000000    -9.481000000     2.517000000
H     3.125000000    -9.876000000     1.222000000
O     4.012000000    -4.396000000     2.177000000
H     3.064000000    -4.441000000     2.051000000
H     4.139000000    -4.581000000     3.107000000
O    -0.069000000    -9.148000000    -2.155000000
H    -0.103000000    -8.639000000    -1.345000000
H    -0.975000000    -9.164000000    -2.465000000
O     1.250000000    -6.350000000     3.657000000
H     1.327000000    -5.838000000     2.852000000
H     2.050000000    -6.152000000     4.145000000
O    -1.814000000    -7.266000000     4.102000000
H    -2.460000000    -7.079000000     3.421000000
H    -0.994000000    -7.395000000     3.625000000
O    -0.165000000    -5.360000000    -2.498000000
H     0.745000000    -5.417000000    -2.789000000
H    -0.118000000    -5.455000000    -1.547000000
