215
-1451.29436
C    -1.862000000    -2.218000000     3.906000000
H    -2.647000000    -1.949000000     3.205000000
C    -1.010000000    -1.197000000     4.322000000
C     0.183000000    -1.573000000     4.985000000
H     0.876000000    -0.813000000     5.337000000
C    -1.304000000     0.294000000     4.025000000
O    -2.742000000     0.606000000     3.970000000
H    -0.961000000     0.477000000     2.997000000
O    -0.510000000     1.214000000     4.898000000
C     0.174000000     2.190000000     4.193000000
C     1.465000000     1.934000000     3.815000000
H     2.007000000     1.052000000     4.145000000
C     2.135000000     2.798000000     2.959000000
O     3.457000000     2.522000000     2.600000000
C     1.504000000     3.944000000     2.407000000
C     2.247000000     4.827000000     1.473000000
H     1.757000000     5.802000000     1.504000000
C     2.093000000     4.348000000     0.084000000
C     1.136000000     4.904000000    -0.782000000
H     0.493000000     5.714000000    -0.446000000
H     3.271000000     5.078000000     1.756000000
C     0.152000000     4.093000000     2.665000000
H    -0.344000000     4.948000000     2.213000000
C    -0.524000000     3.210000000     3.542000000
C    -2.045000000     3.352000000     3.730000000
H    -2.226000000     4.418000000     3.570000000
H    -2.425000000     3.143000000     4.732000000
C    -2.917000000     2.639000000     2.730000000
C    -3.445000000     3.312000000     1.593000000
H    -3.243000000     4.378000000     1.521000000
C    -3.194000000     1.311000000     2.896000000
C    -3.950000000     0.623000000     1.955000000
H    -4.170000000    -0.432000000     2.103000000
C    -4.552000000     1.240000000     0.859000000
O    -5.133000000     0.598000000    -0.209000000
C    -4.219000000     0.072000000    -1.168000000
C    -4.352000000    -1.404000000    -1.356000000
C    -3.699000000    -2.076000000    -2.424000000
H    -3.188000000    -1.408000000    -3.112000000
C    -5.056000000    -2.268000000    -0.482000000
H    -5.464000000    -1.840000000     0.430000000
O    -4.382000000     0.842000000    -2.402000000
H    -3.178000000     0.151000000    -0.820000000
C    -4.310000000     2.632000000     0.626000000
C    -4.641000000     3.393000000    -0.700000000
H    -4.768000000     4.476000000    -0.759000000
H    -5.591000000     2.926000000    -0.967000000
C    -3.452000000     3.082000000    -1.723000000
C    -2.410000000     3.978000000    -1.837000000
H    -2.374000000     4.800000000    -1.127000000
C    -3.439000000     1.892000000    -2.506000000
C    -2.477000000     1.763000000    -3.462000000
H    -2.410000000     0.938000000    -4.167000000
C    -1.456000000     2.697000000    -3.516000000
O    -0.476000000     2.334000000    -4.462000000
C     0.809000000     1.881000000    -3.993000000
C     1.347000000     0.805000000    -4.860000000
C     0.497000000    -0.190000000    -5.300000000
H    -0.582000000    -0.155000000    -5.177000000
C     2.743000000     0.638000000    -4.978000000
H     3.381000000     1.414000000    -4.564000000
O     1.736000000     2.991000000    -3.829000000
H     0.725000000     1.486000000    -2.970000000
C    -1.349000000     3.829000000    -2.703000000
C    -0.239000000     4.941000000    -2.781000000
H    -0.493000000     5.885000000    -2.296000000
H     0.037000000     5.192000000    -3.808000000
C     0.985000000     4.408000000    -2.060000000
C     1.882000000     3.520000000    -2.546000000
C     2.941000000     3.085000000    -1.758000000
H     3.698000000     2.401000000    -2.135000000
C     2.996000000     3.458000000    -0.441000000
O     3.955000000     2.720000000     0.322000000
C     3.540000000     1.775000000     1.341000000
H     2.523000000     1.399000000     1.155000000
C     4.323000000     0.525000000     1.345000000
C     4.557000000    -0.181000000     2.527000000
H     4.214000000     0.289000000     3.445000000
C     4.758000000     0.035000000     0.100000000
H     4.589000000     0.620000000    -0.800000000
C     5.320000000    -1.262000000     0.055000000
O     5.786000000    -1.686000000    -1.183000000
C     5.555000000    -1.967000000     1.200000000
H     6.051000000    -2.926000000     1.074000000
C     5.215000000    -1.454000000     2.434000000
O     5.542000000    -2.279000000     3.512000000
C     4.841000000    -2.418000000     4.697000000
C     3.482000000    -2.805000000     4.722000000
H     2.989000000    -2.992000000     3.772000000
C     5.583000000    -2.331000000     5.889000000
H     6.599000000    -1.942000000     5.881000000
C     4.898000000    -2.626000000     7.074000000
H     5.525000000    -2.560000000     7.960000000
C     3.537000000    -2.985000000     7.066000000
H     2.978000000    -3.128000000     7.987000000
C     2.821000000    -3.081000000     5.940000000
O     1.464000000    -3.356000000     6.052000000
C     0.458000000    -2.953000000     5.272000000
C    -0.501000000    -3.955000000     4.980000000
H    -0.309000000    -4.957000000     5.357000000
C    -1.677000000    -3.548000000     4.350000000
O    -2.554000000    -4.521000000     4.059000000
C    -3.883000000    -4.270000000     3.599000000
C    -4.082000000    -4.402000000     2.202000000
H    -3.190000000    -4.545000000     1.598000000
C    -4.890000000    -3.801000000     4.438000000
H    -4.713000000    -3.691000000     5.505000000
C    -6.137000000    -3.581000000     3.890000000
H    -6.996000000    -3.290000000     4.490000000
C    -6.424000000    -3.875000000     2.555000000
H    -7.441000000    -3.683000000     2.222000000
C    -5.382000000    -4.192000000     1.702000000
O    -5.711000000    -4.381000000     0.374000000
C    -5.127000000    -3.643000000    -0.699000000
C    -4.463000000    -4.238000000    -1.775000000
H    -4.522000000    -5.319000000    -1.865000000
C    -3.808000000    -3.415000000    -2.674000000
O    -3.303000000    -4.037000000    -3.784000000
C    -2.893000000    -3.308000000    -4.910000000
C    -1.517000000    -3.140000000    -5.119000000
H    -0.797000000    -3.728000000    -4.556000000
C    -3.816000000    -2.538000000    -5.604000000
H    -4.887000000    -2.582000000    -5.420000000
C    -3.369000000    -1.748000000    -6.636000000
H    -4.120000000    -1.176000000    -7.176000000
C    -2.027000000    -1.622000000    -6.975000000
H    -1.752000000    -0.938000000    -7.773000000
C    -1.063000000    -2.371000000    -6.228000000
O     0.265000000    -2.267000000    -6.505000000
C     1.016000000    -1.257000000    -5.996000000
C     2.389000000    -1.382000000    -6.228000000
H     2.800000000    -2.147000000    -6.881000000
C     3.225000000    -0.418000000    -5.679000000
O     4.601000000    -0.643000000    -5.680000000
C     5.375000000    -0.420000000    -4.619000000
C     6.263000000     0.655000000    -4.651000000
H     6.316000000     1.301000000    -5.523000000
C     6.966000000     0.966000000    -3.530000000
H     7.636000000     1.822000000    -3.556000000
C     6.782000000     0.223000000    -2.357000000
H     7.281000000     0.497000000    -1.431000000
C     5.922000000    -0.927000000    -2.319000000
C     5.240000000    -1.225000000    -3.509000000
H     4.660000000    -2.127000000    -3.684000000
C     0.607000000    -2.819000000     1.345000000
H     0.823000000    -3.222000000     2.331000000
C     0.622000000    -1.448000000     1.147000000
H     1.133000000    -0.876000000     1.917000000
C     0.095000000    -0.948000000     0.000000000
H     0.062000000     0.143000000    -0.167000000
C    -0.538000000    -1.750000000    -0.983000000
H    -1.016000000    -1.380000000    -1.886000000
C    -0.491000000    -3.127000000    -0.774000000
H    -0.970000000    -3.758000000    -1.517000000
C     0.027000000    -3.645000000     0.425000000
C    -0.029000000    -5.107000000     0.736000000
O    -0.871000000    -5.811000000     0.198000000
O     0.839000000    -5.568000000     1.490000000
O     1.117000000    -7.382000000     5.720000000
H     1.127000000    -8.058000000     5.042000000
H     1.518000000    -6.620000000     5.303000000
O    -0.583000000    -6.625000000    -2.373000000
H    -0.634000000    -6.073000000    -1.592000000
H    -1.481000000    -6.927000000    -2.512000000
O     1.123000000    -9.079000000     3.811000000
H     1.301000000    -9.759000000     3.161000000
H     0.410000000    -8.566000000     3.431000000
O     0.429000000    -7.580000000    -4.856000000
H     0.160000000    -7.083000000    -4.084000000
H     0.905000000    -6.947000000    -5.395000000
O     2.610000000    -7.155000000     0.261000000
H     1.873000000    -6.575000000     0.455000000
H     2.759000000    -7.634000000     1.076000000
O    -3.303000000    -7.012000000     0.134000000
H    -2.578000000    -6.417000000    -0.057000000
H    -3.291000000    -7.642000000    -0.587000000
O    -4.292000000    -8.246000000     2.764000000
H    -3.776000000    -7.673000000     2.197000000
H    -3.657000000    -8.603000000     3.385000000
O     4.449000000    -5.673000000     5.562000000
H     4.891000000    -4.867000000     5.296000000
H     3.657000000    -5.701000000     5.025000000
O    -1.927000000    -7.414000000     4.620000000
H    -1.589000000    -6.530000000     4.759000000
H    -1.769000000    -7.588000000     3.692000000
O     4.889000000    -6.691000000    -1.028000000
H     4.881000000    -5.872000000    -1.524000000
H     4.041000000    -6.710000000    -0.584000000
O     0.819000000   -10.291000000     1.366000000
H     1.389000000   -10.510000000     0.628000000
H    -0.052000000   -10.204000000     0.978000000
O    -3.777000000    -8.679000000    -2.126000000
H    -3.602000000    -9.521000000    -1.705000000
H    -4.719000000    -8.687000000    -2.294000000
O     0.780000000    -8.754000000    -1.416000000
H     0.152000000    -8.075000000    -1.664000000
H     1.558000000    -8.270000000    -1.138000000
O     2.378000000    -2.708000000    -1.625000000
H     1.933000000    -2.949000000    -2.438000000
H     1.674000000    -2.421000000    -1.043000000
O    -1.548000000   -10.657000000     0.315000000
H    -2.288000000   -10.976000000    -0.203000000
H    -1.891000000   -10.590000000     1.206000000
O    -1.135000000    -7.731000000     2.091000000
H    -1.425000000    -8.254000000     1.343000000
H    -0.791000000    -6.927000000     1.702000000
O     2.861000000    -5.774000000     3.354000000
H     2.089000000    -5.840000000     2.792000000
H     3.565000000    -6.169000000     2.840000000
O     4.979000000    -4.218000000    -2.191000000
H     5.644000000    -3.623000000    -1.843000000
H     4.146000000    -3.802000000    -1.968000000
O     1.922000000    -4.056000000    -3.867000000
H     1.734000000    -4.335000000    -4.763000000
H     2.787000000    -4.422000000    -3.680000000
