215
-1458.54902
C    -1.921000000    -2.582000000     3.696000000
H    -2.880000000    -2.465000000     3.197000000
C    -1.264000000    -1.567000000     4.292000000
C    -0.143000000    -1.856000000     5.108000000
H     0.357000000    -1.088000000     5.692000000
C    -1.570000000    -0.037000000     3.950000000
O    -2.968000000     0.129000000     3.814000000
H    -1.130000000     0.123000000     2.955000000
O    -0.916000000     0.884000000     4.787000000
C    -0.367000000     1.986000000     4.269000000
C     1.039000000     1.905000000     4.088000000
H     1.543000000     1.020000000     4.466000000
C     1.687000000     2.834000000     3.291000000
O     3.011000000     2.677000000     2.894000000
C     0.987000000     3.890000000     2.746000000
C     1.641000000     4.917000000     1.835000000
H     1.149000000     5.890000000     1.892000000
C     1.705000000     4.436000000     0.396000000
C     0.736000000     4.873000000    -0.550000000
H    -0.077000000     5.491000000    -0.179000000
H     2.649000000     5.175000000     2.166000000
C    -0.407000000     3.980000000     2.966000000
H    -0.935000000     4.835000000     2.552000000
C    -1.107000000     2.985000000     3.663000000
C    -2.592000000     3.107000000     3.794000000
H    -2.979000000     4.128000000     3.771000000
H    -2.887000000     2.636000000     4.734000000
C    -3.193000000     2.297000000     2.657000000
C    -3.609000000     2.966000000     1.537000000
H    -3.407000000     4.033000000     1.493000000
C    -3.409000000     0.933000000     2.723000000
C    -4.034000000     0.268000000     1.636000000
H    -4.370000000    -0.762000000     1.722000000
C    -4.469000000     0.948000000     0.552000000
O    -4.958000000     0.153000000    -0.435000000
C    -4.040000000    -0.174000000    -1.548000000
C    -4.126000000    -1.600000000    -1.895000000
C    -3.610000000    -2.094000000    -3.103000000
H    -3.094000000    -1.341000000    -3.695000000
C    -4.626000000    -2.550000000    -1.014000000
H    -4.910000000    -2.147000000    -0.046000000
O    -4.278000000     0.759000000    -2.658000000
H    -3.052000000     0.022000000    -1.106000000
C    -4.263000000     2.348000000     0.451000000
C    -4.584000000     3.026000000    -0.879000000
H    -4.722000000     4.099000000    -0.732000000
H    -5.579000000     2.691000000    -1.181000000
C    -3.482000000     2.945000000    -1.929000000
C    -2.544000000     3.959000000    -2.019000000
H    -2.656000000     4.716000000    -1.247000000
C    -3.435000000     1.843000000    -2.793000000
C    -2.398000000     1.783000000    -3.702000000
H    -2.460000000     0.943000000    -4.388000000
C    -1.361000000     2.750000000    -3.748000000
O    -0.253000000     2.543000000    -4.544000000
C     0.946000000     2.056000000    -3.906000000
C     1.488000000     0.785000000    -4.467000000
C     0.750000000    -0.012000000    -5.382000000
H    -0.200000000     0.288000000    -5.818000000
C     2.790000000     0.311000000    -4.054000000
H     3.480000000     0.821000000    -3.386000000
O     1.829000000     3.101000000    -3.558000000
H     0.440000000     1.759000000    -2.976000000
C    -1.459000000     3.858000000    -2.912000000
C    -0.403000000     4.893000000    -2.789000000
H    -0.835000000     5.735000000    -2.245000000
H     0.024000000     5.325000000    -3.697000000
C     0.752000000     4.445000000    -1.880000000
C     1.832000000     3.643000000    -2.284000000
C     2.823000000     3.292000000    -1.437000000
H     3.587000000     2.622000000    -1.821000000
C     2.761000000     3.659000000    -0.138000000
O     3.648000000     3.089000000     0.672000000
C     3.193000000     2.076000000     1.605000000
H     2.252000000     1.575000000     1.335000000
C     4.266000000     0.950000000     1.815000000
C     4.269000000     0.091000000     2.871000000
H     3.584000000     0.303000000     3.688000000
C     5.163000000     0.674000000     0.809000000
H     5.248000000     1.291000000    -0.082000000
C     6.170000000    -0.310000000     0.867000000
O     7.011000000    -0.471000000    -0.155000000
C     6.107000000    -1.179000000     1.932000000
H     6.796000000    -2.018000000     1.990000000
C     5.213000000    -0.954000000     2.986000000
O     5.356000000    -1.594000000     4.256000000
C     4.428000000    -1.683000000     5.269000000
C     3.269000000    -2.412000000     5.122000000
H     2.995000000    -2.808000000     4.148000000
C     4.719000000    -1.036000000     6.424000000
H     5.625000000    -0.448000000     6.542000000
C     3.914000000    -1.113000000     7.570000000
H     4.181000000    -0.604000000     8.493000000
C     2.797000000    -1.894000000     7.474000000
H     2.100000000    -2.105000000     8.281000000
C     2.493000000    -2.533000000     6.257000000
O     1.357000000    -3.348000000     6.118000000
C     0.337000000    -3.127000000     5.271000000
C    -0.388000000    -4.125000000     4.691000000
H    -0.176000000    -5.153000000     4.973000000
C    -1.488000000    -3.854000000     3.905000000
O    -2.146000000    -4.928000000     3.353000000
C    -3.407000000    -4.832000000     2.866000000
C    -3.620000000    -4.807000000     1.463000000
H    -2.766000000    -4.848000000     0.791000000
C    -4.475000000    -4.587000000     3.706000000
H    -4.209000000    -4.426000000     4.747000000
C    -5.771000000    -4.414000000     3.185000000
H    -6.684000000    -4.354000000     3.771000000
C    -6.042000000    -4.435000000     1.828000000
H    -7.051000000    -4.405000000     1.424000000
C    -4.930000000    -4.637000000     0.959000000
O    -5.117000000    -4.816000000    -0.374000000
C    -4.666000000    -3.920000000    -1.319000000
C    -4.285000000    -4.375000000    -2.561000000
H    -4.247000000    -5.425000000    -2.838000000
C    -3.816000000    -3.462000000    -3.499000000
O    -3.359000000    -3.878000000    -4.728000000
C    -2.675000000    -3.092000000    -5.678000000
C    -1.321000000    -2.813000000    -5.604000000
H    -0.845000000    -3.097000000    -4.669000000
C    -3.435000000    -2.749000000    -6.756000000
H    -4.455000000    -3.097000000    -6.896000000
C    -2.780000000    -1.982000000    -7.771000000
H    -3.329000000    -1.564000000    -8.610000000
C    -1.408000000    -1.751000000    -7.768000000
H    -0.999000000    -1.220000000    -8.624000000
C    -0.680000000    -2.212000000    -6.687000000
O     0.686000000    -2.068000000    -6.743000000
C     1.361000000    -1.216000000    -5.866000000
C     2.626000000    -1.588000000    -5.532000000
H     3.034000000    -2.467000000    -6.023000000
C     3.319000000    -0.875000000    -4.510000000
O     4.579000000    -1.353000000    -4.177000000
C     5.563000000    -0.661000000    -3.518000000
C     6.291000000     0.354000000    -4.174000000
H     5.980000000     0.522000000    -5.203000000
C     7.312000000     1.072000000    -3.500000000
H     7.884000000     1.862000000    -3.979000000
C     7.545000000     0.688000000    -2.184000000
H     8.306000000     1.241000000    -1.640000000
C     6.730000000    -0.232000000    -1.495000000
C     5.737000000    -0.974000000    -2.191000000
H     5.107000000    -1.758000000    -1.779000000
C     0.579000000    -2.516000000     0.969000000
H     1.135000000    -3.011000000     1.761000000
C     0.357000000    -1.151000000     0.939000000
H     0.742000000    -0.548000000     1.758000000
C    -0.229000000    -0.494000000    -0.117000000
H    -0.314000000     0.651000000    -0.202000000
C    -0.736000000    -1.226000000    -1.183000000
H    -1.218000000    -0.835000000    -2.075000000
C    -0.702000000    -2.635000000    -1.115000000
H    -1.174000000    -3.265000000    -1.865000000
C     0.035000000    -3.253000000    -0.091000000
C     0.235000000    -4.707000000    -0.187000000
O     0.043000000    -5.286000000    -1.227000000
O     0.639000000    -5.319000000     0.805000000
O    -1.151000000    -7.263000000    -2.287000000
H    -0.534000000    -6.623000000    -1.931000000
H    -1.666000000    -7.544000000    -1.531000000
O     1.490000000    -7.694000000     3.935000000
H     1.059000000    -7.326000000     4.707000000
H     1.956000000    -6.954000000     3.545000000
O     0.937000000    -7.899000000    -0.399000000
H     0.670000000    -7.006000000    -0.181000000
H     1.481000000    -8.173000000     0.340000000
O    -2.947000000    -7.646000000    -0.028000000
H    -2.272000000    -7.598000000     0.650000000
H    -3.664000000    -7.109000000     0.309000000
O    -1.546000000    -9.285000000    -4.227000000
H    -1.371000000    -8.801000000    -3.420000000
H    -0.950000000    -8.901000000    -4.870000000
O     1.996000000    -7.566000000    -3.080000000
H     2.864000000    -7.249000000    -2.830000000
H     1.538000000    -7.690000000    -2.248000000
O     4.828000000    -8.349000000    -0.540000000
H     4.084000000    -8.392000000     0.062000000
H     5.565000000    -8.081000000     0.009000000
O    -1.994000000   -10.232000000     2.299000000
H    -2.189000000   -10.271000000     1.363000000
H    -1.944000000    -9.297000000     2.495000000
O     4.320000000    -3.856000000     1.495000000
H     3.815000000    -3.798000000     0.684000000
H     5.213000000    -3.626000000     1.239000000
O    -0.254000000   -10.134000000    -1.268000000
H    -1.159000000   -10.015000000    -0.983000000
H     0.158000000    -9.283000000    -1.120000000
O     2.217000000    -1.788000000    -1.694000000
H     2.585000000    -1.094000000    -2.241000000
H     1.281000000    -1.592000000    -1.654000000
O    -1.736000000    -6.369000000    -5.089000000
H    -0.900000000    -5.948000000    -4.888000000
H    -2.007000000    -6.770000000    -4.263000000
O    -0.986000000    -7.409000000     1.885000000
H    -0.302000000    -7.689000000     2.494000000
H    -0.655000000    -6.592000000     1.513000000
O    -5.088000000    -7.756000000    -2.241000000
H    -4.301000000    -7.793000000    -1.698000000
H    -5.800000000    -7.991000000    -1.647000000
O     4.042000000    -6.125000000    -2.683000000
H     3.933000000    -5.249000000    -2.312000000
H     4.579000000    -6.591000000    -2.043000000
O     2.444000000    -5.537000000     2.884000000
H     1.932000000    -5.252000000     2.127000000
H     3.139000000    -4.884000000     2.962000000
O     2.888000000    -8.814000000     1.661000000
H     2.355000000    -8.576000000     2.420000000
H     3.425000000    -9.545000000     1.964000000
O     0.648000000    -5.209000000    -3.881000000
H     1.456000000    -5.625000000    -3.581000000
H     0.189000000    -4.969000000    -3.075000000
O     3.130000000    -4.129000000    -0.963000000
H     2.932000000    -3.239000000    -1.253000000
H     2.274000000    -4.523000000    -0.794000000
