215
-1403.65953
C    -1.863000000    -1.849000000    -4.192000000
H    -1.731000000    -0.818000000    -4.510000000
C    -2.682000000    -2.108000000    -3.125000000
C    -2.879000000    -3.415000000    -2.727000000
H    -3.466000000    -3.547000000    -1.822000000
C    -3.327000000    -0.876000000    -2.479000000
O    -3.625000000     0.212000000    -3.368000000
H    -2.615000000    -0.456000000    -1.753000000
O    -4.554000000    -1.224000000    -1.790000000
C    -4.608000000    -0.737000000    -0.517000000
C    -4.261000000    -1.613000000     0.526000000
H    -3.979000000    -2.615000000     0.210000000
C    -4.035000000    -1.185000000     1.805000000
O    -3.478000000    -2.037000000     2.770000000
C    -4.365000000     0.143000000     2.047000000
C    -4.170000000     0.774000000     3.493000000
H    -4.894000000     1.579000000     3.628000000
C    -2.751000000     1.202000000     3.854000000
C    -2.322000000     2.484000000     3.569000000
H    -3.018000000     3.265000000     3.274000000
H    -4.554000000     0.011000000     4.174000000
C    -4.856000000     1.031000000     1.030000000
H    -5.237000000     2.014000000     1.297000000
C    -4.890000000     0.592000000    -0.259000000
C    -5.215000000     1.580000000    -1.402000000
H    -5.856000000     2.402000000    -1.079000000
H    -5.861000000     1.159000000    -2.175000000
C    -3.932000000     2.244000000    -1.993000000
C    -3.444000000     3.511000000    -1.570000000
H    -4.045000000     4.120000000    -0.900000000
C    -3.259000000     1.480000000    -2.983000000
C    -2.092000000     2.061000000    -3.520000000
H    -1.431000000     1.566000000    -4.227000000
C    -1.628000000     3.352000000    -3.087000000
O    -0.409000000     3.770000000    -3.579000000
C     0.790000000     3.588000000    -2.747000000
C     2.057000000     3.052000000    -3.529000000
C     3.334000000     3.536000000    -3.206000000
H     3.346000000     4.327000000    -2.461000000
C     2.038000000     1.961000000    -4.326000000
H     1.029000000     1.593000000    -4.494000000
O     1.072000000     4.704000000    -1.919000000
H     0.539000000     2.743000000    -2.089000000
C    -2.260000000     4.051000000    -2.083000000
C    -1.683000000     5.293000000    -1.476000000
H    -2.549000000     5.806000000    -1.052000000
H    -1.335000000     5.995000000    -2.236000000
C    -0.664000000     4.940000000    -0.378000000
C    -1.056000000     4.919000000     0.978000000
H    -2.081000000     5.088000000     1.296000000
C     0.635000000     4.671000000    -0.708000000
C     1.526000000     4.309000000     0.241000000
H     2.518000000     3.968000000    -0.045000000
C     1.125000000     4.184000000     1.603000000
O     2.010000000     3.560000000     2.476000000
C     1.808000000     2.253000000     2.899000000
C     3.101000000     1.250000000     2.905000000
C     4.076000000     1.567000000     1.972000000
H     3.902000000     2.507000000     1.454000000
C     3.261000000     0.145000000     3.783000000
H     2.610000000    -0.182000000     4.589000000
O     1.253000000     2.331000000     4.222000000
H     1.127000000     1.757000000     2.192000000
C    -0.159000000     4.485000000     2.011000000
C    -0.609000000     4.295000000     3.448000000
H    -1.495000000     4.922000000     3.568000000
H     0.159000000     4.571000000     4.173000000
C    -1.019000000     2.871000000     3.698000000
C    -0.097000000     1.942000000     4.195000000
C    -0.459000000     0.583000000     4.411000000
H     0.288000000    -0.156000000     4.687000000
C    -1.759000000     0.228000000     4.162000000
O    -1.990000000    -1.141000000     4.268000000
C    -2.124000000    -1.928000000     3.023000000
H    -1.682000000    -1.465000000     2.128000000
C    -1.507000000    -3.329000000     3.052000000
C    -2.010000000    -4.372000000     2.257000000
H    -2.743000000    -4.115000000     1.496000000
C    -0.390000000    -3.552000000     3.835000000
H    -0.069000000    -2.831000000     4.582000000
C     0.312000000    -4.791000000     3.828000000
O     1.470000000    -5.101000000     4.612000000
C    -0.212000000    -5.806000000     3.035000000
H     0.228000000    -6.800000000     3.056000000
C    -1.367000000    -5.590000000     2.317000000
O    -1.838000000    -6.678000000     1.715000000
C    -2.645000000    -6.600000000     0.620000000
C    -2.041000000    -6.444000000    -0.638000000
H    -0.958000000    -6.399000000    -0.709000000
C    -4.057000000    -6.392000000     0.715000000
H    -4.615000000    -6.560000000     1.633000000
C    -4.800000000    -6.204000000    -0.503000000
H    -5.866000000    -6.193000000    -0.291000000
C    -4.203000000    -6.143000000    -1.706000000
H    -4.654000000    -5.842000000    -2.648000000
C    -2.762000000    -6.144000000    -1.728000000
O    -2.160000000    -5.819000000    -2.889000000
C    -2.231000000    -4.465000000    -3.384000000
C    -1.513000000    -4.152000000    -4.518000000
H    -1.045000000    -4.928000000    -5.118000000
C    -1.294000000    -2.866000000    -4.930000000
O    -0.591000000    -2.622000000    -6.090000000
C    -0.019000000    -1.436000000    -6.322000000
C     1.301000000    -1.221000000    -5.848000000
H     1.871000000    -1.966000000    -5.299000000
C    -0.723000000    -0.510000000    -7.118000000
H    -1.708000000    -0.837000000    -7.442000000
C    -0.032000000     0.647000000    -7.512000000
H    -0.444000000     1.408000000    -8.171000000
C     1.260000000     0.866000000    -6.999000000
H     1.668000000     1.856000000    -7.182000000
C     1.913000000    -0.061000000    -6.333000000
O     3.091000000     0.267000000    -5.667000000
C     3.219000000     1.339000000    -4.833000000
C     4.480000000     1.922000000    -4.549000000
H     5.396000000     1.437000000    -4.877000000
C     4.533000000     3.041000000    -3.737000000
O     5.757000000     3.464000000    -3.284000000
C     6.036000000     3.365000000    -1.962000000
C     5.876000000     2.164000000    -1.247000000
H     5.777000000     1.300000000    -1.899000000
C     6.387000000     4.549000000    -1.298000000
H     6.598000000     5.408000000    -1.929000000
C     6.726000000     4.468000000     0.062000000
H     7.049000000     5.405000000     0.510000000
C     6.653000000     3.283000000     0.767000000
H     6.899000000     3.301000000     1.826000000
C     6.228000000     2.110000000     0.119000000
O     6.080000000     0.955000000     0.823000000
C     5.152000000     0.670000000     1.766000000
C     5.351000000    -0.334000000     2.687000000
H     6.177000000    -1.039000000     2.640000000
C     4.380000000    -0.683000000     3.635000000
O     4.741000000    -1.659000000     4.571000000
C     3.827000000    -2.424000000     5.287000000
C     3.958000000    -2.635000000     6.667000000
H     4.662000000    -2.025000000     7.228000000
C     3.130000000    -3.481000000     7.346000000
H     3.233000000    -3.574000000     8.424000000
C     2.140000000    -4.226000000     6.678000000
H     1.603000000    -4.955000000     7.280000000
C     2.211000000    -4.158000000     5.269000000
C     2.950000000    -3.236000000     4.591000000
H     2.937000000    -3.239000000     3.504000000
C     3.030000000    -3.022000000     0.402000000
H     3.967000000    -3.332000000     0.859000000
C     2.736000000    -1.688000000     0.252000000
H     3.493000000    -0.978000000     0.575000000
C     1.539000000    -1.286000000    -0.300000000
H     1.451000000    -0.233000000    -0.587000000
C     0.564000000    -2.198000000    -0.736000000
H    -0.368000000    -1.888000000    -1.203000000
C     0.833000000    -3.548000000    -0.483000000
H     0.103000000    -4.281000000    -0.816000000
C     2.088000000    -3.987000000     0.026000000
C     2.309000000    -5.454000000     0.144000000
O     1.426000000    -6.237000000    -0.243000000
O     3.430000000    -5.936000000     0.258000000
O     6.313000000    -4.700000000     3.066000000
H     5.887000000    -4.322000000     2.297000000
H     7.061000000    -4.126000000     3.232000000
O     6.555000000    -2.965000000     0.158000000
H     7.205000000    -2.264000000     0.110000000
H     7.030000000    -3.752000000    -0.111000000
O     3.887000000   -11.053000000     0.305000000
H     3.881000000   -10.257000000    -0.227000000
H     4.247000000   -10.776000000     1.147000000
O     4.986000000    -9.839000000     2.346000000
H     5.360000000   -10.325000000     3.080000000
H     4.842000000    -8.958000000     2.690000000
O     3.032000000    -3.835000000    -6.888000000
H     3.041000000    -4.028000000    -5.950000000
H     3.513000000    -4.560000000    -7.287000000
O     0.831000000    -7.824000000    -2.194000000
H     0.281000000    -7.284000000    -2.762000000
H     1.136000000    -7.223000000    -1.515000000
O     0.303000000    -8.677000000     1.187000000
H     0.523000000    -7.802000000     1.508000000
H     0.170000000    -8.561000000     0.247000000
O     1.684000000   -10.514000000     2.525000000
H     2.361000000   -10.520000000     1.848000000
H     1.002000000    -9.939000000     2.177000000
O     5.012000000    -7.188000000    -3.803000000
H     4.530000000    -6.495000000    -3.351000000
H     5.053000000    -7.904000000    -3.170000000
O     3.929000000    -8.546000000    -0.666000000
H     4.437000000    -7.769000000    -0.432000000
H     3.018000000    -8.289000000    -0.526000000
O     6.909000000    -6.441000000     5.172000000
H     6.556000000    -6.047000000     4.374000000
H     7.557000000    -5.809000000     5.484000000
O     4.304000000    -6.795000000     2.760000000
H     3.884000000    -6.376000000     2.009000000
H     5.084000000    -6.265000000     2.924000000
O     3.209000000    -4.267000000    -4.008000000
H     3.809000000    -4.602000000    -3.343000000
H     2.463000000    -3.931000000    -3.510000000
O     3.757000000    -8.564000000    -5.943000000
H     4.094000000    -7.990000000    -5.254000000
H     4.502000000    -9.117000000    -6.178000000
O     0.557000000   -10.294000000    -3.204000000
H     0.571000000    -9.443000000    -2.766000000
H     1.480000000   -10.534000000    -3.291000000
O     5.486000000    -2.306000000    -2.387000000
H     4.655000000    -2.771000000    -2.287000000
H     5.854000000    -2.280000000    -1.504000000
O     7.567000000    -6.005000000    -1.138000000
H     8.280000000    -6.151000000    -0.516000000
H     7.463000000    -6.845000000    -1.585000000
O     4.871000000    -5.081000000    -1.808000000
H     4.398000000    -5.311000000    -1.008000000
H     5.792000000    -5.065000000    -1.545000000
O    -1.774000000    -7.143000000     5.544000000
H    -1.569000000    -8.076000000     5.598000000
H    -1.115000000    -6.787000000     4.949000000
