215
-1452.96671
C    -1.271000000    -1.162000000     5.149000000
H    -2.320000000    -1.182000000     4.867000000
C    -0.567000000    -0.014000000     4.878000000
C     0.733000000     0.113000000     5.366000000
H     1.326000000     0.966000000     5.044000000
C    -1.139000000     1.003000000     3.881000000
O    -2.614000000     1.167000000     4.082000000
H    -0.991000000     0.765000000     2.818000000
O    -0.620000000     2.261000000     4.305000000
C    -0.329000000     3.145000000     3.254000000
C     0.983000000     3.274000000     2.915000000
H     1.736000000     2.710000000     3.461000000
C     1.361000000     3.969000000     1.778000000
O     2.737000000     3.892000000     1.366000000
C     0.423000000     4.626000000     0.971000000
C     0.846000000     5.433000000    -0.214000000
H     0.176000000     6.295000000    -0.232000000
C     0.874000000     4.504000000    -1.431000000
C    -0.349000000     4.368000000    -2.112000000
H    -1.281000000     4.786000000    -1.739000000
H     1.824000000     5.882000000    -0.025000000
C    -0.927000000     4.607000000     1.410000000
H    -1.559000000     5.095000000     0.672000000
C    -1.333000000     3.865000000     2.545000000
C    -2.771000000     3.747000000     2.958000000
H    -3.492000000     4.482000000     2.594000000
H    -2.897000000     3.538000000     4.023000000
C    -3.406000000     2.492000000     2.293000000
C    -4.057000000     2.621000000     1.020000000
H    -4.101000000     3.628000000     0.614000000
C    -3.366000000     1.221000000     2.957000000
C    -3.932000000     0.127000000     2.265000000
H    -4.041000000    -0.886000000     2.644000000
C    -4.513000000     0.268000000     0.995000000
O    -4.870000000    -0.916000000     0.384000000
C    -3.853000000    -1.305000000    -0.604000000
C    -3.477000000    -2.761000000    -0.469000000
C    -3.265000000    -3.439000000    -1.647000000
H    -3.369000000    -2.919000000    -2.595000000
C    -3.311000000    -3.350000000     0.803000000
H    -3.346000000    -2.790000000     1.734000000
O    -4.357000000    -1.049000000    -1.918000000
H    -2.948000000    -0.719000000    -0.385000000
C    -4.589000000     1.536000000     0.371000000
C    -5.256000000     1.566000000    -1.014000000
H    -5.818000000     2.496000000    -1.120000000
H    -6.017000000     0.783000000    -1.056000000
C    -4.220000000     1.347000000    -2.115000000
C    -3.569000000     2.484000000    -2.581000000
H    -3.736000000     3.512000000    -2.272000000
C    -3.818000000     0.092000000    -2.530000000
C    -2.883000000    -0.068000000    -3.500000000
H    -2.754000000    -1.031000000    -3.986000000
C    -2.221000000     1.025000000    -3.968000000
O    -1.182000000     0.809000000    -4.848000000
C     0.129000000     0.772000000    -4.260000000
C     0.804000000    -0.482000000    -4.669000000
C     0.114000000    -1.510000000    -5.305000000
H    -0.964000000    -1.635000000    -5.361000000
C     2.180000000    -0.603000000    -4.399000000
H     2.657000000     0.248000000    -3.919000000
O     0.829000000     1.964000000    -4.658000000
H     0.016000000     0.829000000    -3.167000000
C    -2.525000000     2.307000000    -3.497000000
C    -1.636000000     3.534000000    -4.004000000
H    -2.225000000     4.388000000    -3.661000000
H    -1.645000000     3.604000000    -5.094000000
C    -0.349000000     3.630000000    -3.308000000
C     0.749000000     2.881000000    -3.628000000
C     1.909000000     3.005000000    -2.932000000
H     2.828000000     2.497000000    -3.215000000
C     2.005000000     3.769000000    -1.797000000
O     3.164000000     3.688000000    -1.041000000
C     3.088000000     3.041000000     0.229000000
H     2.306000000     2.287000000     0.057000000
C     4.371000000     2.283000000     0.556000000
C     4.558000000     1.848000000     1.884000000
H     3.949000000     2.186000000     2.718000000
C     5.244000000     1.818000000    -0.465000000
H     5.125000000     2.142000000    -1.496000000
C     6.213000000     0.956000000    -0.138000000
O     6.959000000     0.345000000    -1.102000000
C     6.428000000     0.490000000     1.183000000
H     7.132000000    -0.326000000     1.326000000
C     5.594000000     0.978000000     2.194000000
O     5.753000000     0.535000000     3.470000000
C     4.880000000     0.773000000     4.576000000
C     4.141000000    -0.239000000     5.230000000
H     4.103000000    -1.266000000     4.876000000
C     4.857000000     2.060000000     5.151000000
H     5.460000000     2.845000000     4.701000000
C     4.126000000     2.351000000     6.318000000
H     4.135000000     3.349000000     6.748000000
C     3.393000000     1.344000000     6.956000000
H     2.843000000     1.573000000     7.865000000
C     3.376000000     0.049000000     6.426000000
O     2.452000000    -0.880000000     6.844000000
C     1.220000000    -0.880000000     6.281000000
C     0.456000000    -2.040000000     6.521000000
H     0.881000000    -2.805000000     7.165000000
C    -0.803000000    -2.152000000     6.024000000
O    -1.570000000    -3.307000000     6.299000000
C    -2.364000000    -4.023000000     5.369000000
C    -1.929000000    -4.285000000     4.103000000
H    -0.891000000    -4.068000000     3.863000000
C    -3.741000000    -4.269000000     5.715000000
H    -4.189000000    -3.981000000     6.663000000
C    -4.608000000    -4.802000000     4.740000000
H    -5.659000000    -4.965000000     4.965000000
C    -4.082000000    -5.128000000     3.491000000
H    -4.778000000    -5.548000000     2.769000000
C    -2.717000000    -4.990000000     3.185000000
O    -2.299000000    -5.330000000     1.912000000
C    -2.808000000    -4.599000000     0.801000000
C    -2.627000000    -5.310000000    -0.401000000
H    -2.218000000    -6.311000000    -0.282000000
C    -2.930000000    -4.765000000    -1.629000000
O    -2.651000000    -5.491000000    -2.742000000
C    -2.454000000    -5.056000000    -4.030000000
C    -1.246000000    -4.516000000    -4.433000000
H    -0.389000000    -4.496000000    -3.765000000
C    -3.568000000    -5.004000000    -4.855000000
H    -4.479000000    -5.472000000    -4.491000000
C    -3.383000000    -4.542000000    -6.157000000
H    -4.228000000    -4.614000000    -6.837000000
C    -2.124000000    -4.295000000    -6.706000000
H    -1.931000000    -4.183000000    -7.770000000
C    -1.029000000    -4.254000000    -5.820000000
O     0.247000000    -3.770000000    -6.229000000
C     0.838000000    -2.668000000    -5.654000000
C     2.225000000    -2.724000000    -5.379000000
H     2.672000000    -3.681000000    -5.635000000
C     2.868000000    -1.709000000    -4.682000000
O     4.160000000    -1.948000000    -4.222000000
C     5.160000000    -1.047000000    -3.931000000
C     5.642000000    -0.215000000    -4.966000000
H     5.299000000    -0.376000000    -5.985000000
C     6.442000000     0.871000000    -4.638000000
H     6.739000000     1.529000000    -5.451000000
C     6.893000000     1.088000000    -3.355000000
H     7.569000000     1.883000000    -3.051000000
C     6.584000000     0.169000000    -2.382000000
C     5.653000000    -0.792000000    -2.693000000
H     5.300000000    -1.431000000    -1.888000000
C     1.079000000    -2.201000000     1.941000000
H     1.523000000    -2.480000000     2.893000000
C     0.716000000    -0.894000000     1.653000000
H     0.784000000    -0.150000000     2.443000000
C     0.107000000    -0.591000000     0.415000000
H    -0.173000000     0.423000000     0.143000000
C    -0.077000000    -1.514000000    -0.519000000
H    -0.437000000    -1.267000000    -1.514000000
C     0.302000000    -2.821000000    -0.255000000
H     0.045000000    -3.566000000    -1.004000000
C     0.805000000    -3.224000000     1.016000000
C     1.197000000    -4.615000000     1.307000000
O     1.269000000    -5.407000000     0.402000000
O     1.415000000    -5.013000000     2.441000000
O     0.519000000    -7.790000000     0.778000000
H     0.852000000    -8.177000000    -0.031000000
H     0.604000000    -6.846000000     0.645000000
O     2.996000000    -0.500000000    -0.652000000
H     2.241000000    -0.359000000    -1.224000000
H     2.624000000    -0.540000000     0.229000000
O     0.429000000   -10.472000000     1.375000000
H     1.285000000   -10.900000000     1.352000000
H     0.585000000    -9.606000000     0.999000000
O     3.650000000    -6.688000000     0.798000000
H     3.371000000    -7.568000000     1.050000000
H     2.841000000    -6.179000000     0.769000000
O     3.303000000    -6.192000000     3.867000000
H     2.668000000    -5.867000000     3.230000000
H     3.594000000    -7.031000000     3.509000000
O     5.455000000    -4.252000000     4.306000000
H     5.191000000    -5.112000000     3.978000000
H     4.739000000    -3.669000000     4.054000000
O     3.313000000    -6.017000000     6.528000000
H     4.106000000    -5.526000000     6.744000000
H     3.306000000    -6.052000000     5.571000000
O    -0.664000000    -9.757000000     3.756000000
H    -0.162000000    -9.034000000     4.133000000
H    -0.144000000   -10.044000000     3.005000000
O     3.959000000    -8.849000000     2.892000000
H     3.611000000    -9.687000000     2.585000000
H     3.857000000    -8.882000000     3.843000000
O    -2.999000000    -8.100000000     3.528000000
H    -2.461000000    -8.804000000     3.890000000
H    -2.685000000    -7.309000000     3.967000000
O     0.135000000    -6.987000000     3.587000000
H    -0.057000000    -7.460000000     2.778000000
H     0.478000000    -6.142000000     3.296000000
O     4.543000000    -3.123000000    -0.420000000
H     3.928000000    -2.396000000    -0.523000000
H     4.199000000    -3.811000000    -0.989000000
O     0.197000000    -6.673000000     6.274000000
H     0.089000000    -6.954000000     5.366000000
H     0.852000000    -5.975000000     6.233000000
O     1.428000000    -9.440000000    -1.383000000
H     1.236000000   -10.343000000    -1.638000000
H     2.139000000    -9.174000000    -1.965000000
O     1.810000000    -6.148000000    -2.083000000
H     1.587000000    -5.714000000    -1.259000000
H     1.050000000    -6.696000000    -2.279000000
O     4.855000000    -2.401000000     2.263000000
H     4.478000000    -1.529000000     2.149000000
H     4.820000000    -2.793000000     1.390000000
O    -2.037000000    -8.644000000     0.848000000
H    -2.228000000    -8.053000000     1.576000000
H    -1.093000000    -8.559000000     0.711000000
O     3.641000000    -8.116000000    -2.545000000
H     3.209000000    -7.318000000    -2.238000000
H     4.195000000    -7.825000000    -3.269000000
O     6.356000000    -6.046000000     1.080000000
H     6.559000000    -6.622000000     1.817000000
H     5.400000000    -6.006000000     1.064000000
