215
-1412.10391
C    -1.453000000    -1.267000000     4.026000000
H    -2.322000000    -1.357000000     3.380000000
C    -0.715000000    -0.092000000     4.234000000
C     0.465000000    -0.277000000     4.949000000
H     1.111000000     0.532000000     5.280000000
C    -1.186000000     1.383000000     3.786000000
O    -2.629000000     1.476000000     3.807000000
H    -1.001000000     1.379000000     2.701000000
O    -0.502000000     2.460000000     4.389000000
C     0.015000000     3.324000000     3.494000000
C     1.334000000     3.209000000     3.301000000
H     1.973000000     2.496000000     3.816000000
C     1.934000000     3.899000000     2.304000000
O     3.149000000     3.481000000     1.871000000
C     1.163000000     4.706000000     1.461000000
C     1.873000000     5.388000000     0.244000000
H     1.467000000     6.365000000    -0.027000000
C     1.677000000     4.511000000    -1.004000000
C     0.606000000     4.703000000    -1.937000000
H    -0.233000000     5.381000000    -1.799000000
H     2.944000000     5.473000000     0.441000000
C    -0.203000000     4.863000000     1.723000000
H    -0.741000000     5.506000000     1.032000000
C    -0.839000000     4.160000000     2.747000000
C    -2.352000000     4.275000000     2.949000000
H    -2.637000000     5.239000000     2.523000000
H    -2.572000000     4.326000000     4.017000000
C    -3.244000000     3.164000000     2.242000000
C    -3.765000000     3.368000000     0.950000000
H    -3.541000000     4.289000000     0.420000000
C    -3.362000000     1.883000000     2.736000000
C    -4.147000000     0.929000000     2.123000000
H    -4.259000000    -0.051000000     2.580000000
C    -4.650000000     1.117000000     0.843000000
O    -5.150000000    -0.003000000     0.129000000
C    -4.182000000    -0.688000000    -0.821000000
C    -4.444000000    -2.223000000    -0.881000000
C    -4.027000000    -2.910000000    -2.021000000
H    -3.682000000    -2.325000000    -2.870000000
C    -4.797000000    -2.972000000     0.225000000
H    -5.222000000    -2.552000000     1.133000000
O    -4.406000000    -0.178000000    -2.175000000
H    -3.154000000    -0.642000000    -0.433000000
C    -4.453000000     2.334000000     0.247000000
C    -4.886000000     2.641000000    -1.231000000
H    -5.019000000     3.720000000    -1.336000000
H    -5.841000000     2.112000000    -1.266000000
C    -3.796000000     2.260000000    -2.232000000
C    -2.818000000     3.221000000    -2.701000000
H    -2.709000000     4.245000000    -2.351000000
C    -3.671000000     0.931000000    -2.696000000
C    -2.733000000     0.604000000    -3.634000000
H    -2.641000000    -0.449000000    -3.886000000
C    -1.869000000     1.565000000    -4.150000000
O    -0.839000000     1.088000000    -4.927000000
C     0.489000000     0.958000000    -4.277000000
C     1.205000000    -0.330000000    -4.633000000
C     0.480000000    -1.548000000    -4.616000000
H    -0.578000000    -1.572000000    -4.365000000
C     2.555000000    -0.292000000    -4.965000000
H     3.066000000     0.659000000    -5.093000000
O     1.244000000     2.123000000    -4.485000000
H     0.177000000     0.848000000    -3.228000000
C    -1.812000000     2.814000000    -3.586000000
C    -0.846000000     3.955000000    -3.959000000
H    -1.273000000     4.950000000    -3.821000000
H    -0.488000000     3.880000000    -4.988000000
C     0.442000000     3.871000000    -3.079000000
C     1.485000000     2.933000000    -3.369000000
C     2.593000000     2.812000000    -2.490000000
H     3.400000000     2.092000000    -2.598000000
C     2.624000000     3.523000000    -1.280000000
O     3.662000000     3.172000000    -0.392000000
C     3.129000000     2.501000000     0.802000000
H     2.116000000     2.111000000     0.625000000
C     4.153000000     1.442000000     1.131000000
C     4.625000000     1.167000000     2.410000000
H     4.391000000     1.828000000     3.240000000
C     4.504000000     0.551000000     0.049000000
H     4.007000000     0.828000000    -0.877000000
C     5.389000000    -0.526000000     0.293000000
O     5.486000000    -1.507000000    -0.689000000
C     5.836000000    -0.720000000     1.571000000
H     6.424000000    -1.607000000     1.792000000
C     5.530000000     0.184000000     2.629000000
O     6.021000000     0.013000000     3.929000000
C     5.222000000    -0.059000000     5.033000000
C     3.988000000    -0.739000000     5.031000000
H     3.775000000    -1.318000000     4.136000000
C     5.607000000     0.638000000     6.165000000
H     6.509000000     1.242000000     6.101000000
C     4.749000000     0.577000000     7.307000000
H     4.992000000     0.962000000     8.293000000
C     3.560000000    -0.114000000     7.246000000
H     2.959000000    -0.194000000     8.148000000
C     3.154000000    -0.793000000     6.140000000
O     2.056000000    -1.606000000     6.223000000
C     0.926000000    -1.445000000     5.463000000
C     0.185000000    -2.575000000     5.229000000
H     0.423000000    -3.543000000     5.661000000
C    -0.962000000    -2.502000000     4.508000000
O    -1.535000000    -3.756000000     4.227000000
C    -2.873000000    -3.979000000     4.086000000
C    -3.335000000    -4.494000000     2.834000000
H    -2.632000000    -4.667000000     2.023000000
C    -3.776000000    -3.619000000     5.062000000
H    -3.607000000    -3.023000000     5.955000000
C    -5.188000000    -3.853000000     4.861000000
H    -5.913000000    -3.385000000     5.522000000
C    -5.612000000    -4.359000000     3.605000000
H    -6.643000000    -4.606000000     3.365000000
C    -4.709000000    -4.715000000     2.635000000
O    -5.179000000    -5.044000000     1.334000000
C    -4.798000000    -4.370000000     0.240000000
C    -4.556000000    -5.046000000    -0.949000000
H    -4.811000000    -6.102000000    -0.923000000
C    -4.074000000    -4.297000000    -2.045000000
O    -3.800000000    -5.115000000    -3.146000000
C    -3.116000000    -4.638000000    -4.201000000
C    -1.777000000    -4.446000000    -3.993000000
H    -1.276000000    -4.632000000    -3.046000000
C    -3.743000000    -4.438000000    -5.439000000
H    -4.809000000    -4.623000000    -5.532000000
C    -2.925000000    -4.087000000    -6.569000000
H    -3.332000000    -4.085000000    -7.577000000
C    -1.570000000    -3.911000000    -6.385000000
H    -1.088000000    -3.751000000    -7.346000000
C    -0.968000000    -4.099000000    -5.103000000
O     0.371000000    -3.981000000    -4.891000000
C     1.067000000    -2.741000000    -4.961000000
C     2.454000000    -2.722000000    -5.193000000
H     3.030000000    -3.626000000    -5.374000000
C     3.202000000    -1.509000000    -5.227000000
O     4.536000000    -1.673000000    -5.252000000
C     5.299000000    -1.185000000    -4.243000000
C     6.423000000    -0.365000000    -4.534000000
H     6.633000000     0.044000000    -5.519000000
C     7.139000000     0.065000000    -3.459000000
H     8.036000000     0.648000000    -3.652000000
C     6.879000000    -0.330000000    -2.174000000
H     7.539000000    -0.084000000    -1.346000000
C     5.762000000    -1.137000000    -1.971000000
C     4.910000000    -1.566000000    -2.961000000
H     4.218000000    -2.390000000    -2.807000000
C     0.924000000    -1.914000000     1.170000000
H     1.570000000    -2.192000000     1.999000000
C     0.617000000    -0.529000000     1.024000000
H     0.815000000     0.270000000     1.733000000
C    -0.167000000    -0.133000000    -0.038000000
H    -0.507000000     0.921000000    -0.207000000
C    -0.609000000    -1.050000000    -0.988000000
H    -1.240000000    -0.665000000    -1.785000000
C    -0.321000000    -2.436000000    -0.827000000
H    -0.689000000    -3.249000000    -1.448000000
C     0.449000000    -2.829000000     0.239000000
C     0.735000000    -4.332000000     0.597000000
O     0.226000000    -5.215000000    -0.078000000
O     1.107000000    -4.549000000     1.730000000
O    -2.099000000    -6.609000000    -0.196000000
H    -2.241000000    -6.614000000    -1.143000000
H    -1.489000000    -5.886000000    -0.050000000
O     5.131000000    -4.430000000     0.406000000
H     4.732000000    -4.015000000    -0.360000000
H     4.770000000    -5.316000000     0.412000000
O     0.272000000    -9.803000000     1.973000000
H     0.189000000    -8.866000000     2.154000000
H     0.513000000    -9.847000000     1.047000000
O     3.233000000    -7.695000000     2.700000000
H     3.235000000    -8.326000000     3.420000000
H     2.752000000    -6.942000000     3.044000000
O     1.122000000    -6.047000000     3.951000000
H     1.003000000    -5.357000000     3.298000000
H     0.429000000    -6.679000000     3.761000000
O    -2.804000000    -7.621000000     3.731000000
H    -2.179000000    -7.275000000     3.093000000
H    -3.269000000    -8.313000000     3.259000000
O     2.822000000    -8.034000000    -3.907000000
H     2.968000000    -8.460000000    -3.062000000
H     2.151000000    -8.568000000    -4.332000000
O     5.669000000    -5.359000000    -3.188000000
H     6.348000000    -5.997000000    -2.971000000
H     5.779000000    -4.662000000    -2.541000000
O     7.028000000    -7.175000000     0.210000000
H     6.112000000    -6.914000000     0.308000000
H     7.525000000    -6.377000000     0.384000000
O     4.130000000    -7.076000000     0.392000000
H     4.127000000    -7.908000000    -0.081000000
H     3.764000000    -7.287000000     1.251000000
O    -1.493000000    -9.692000000    -2.438000000
H    -1.819000000    -8.862000000    -2.786000000
H    -0.549000000    -9.561000000    -2.352000000
O    -0.494000000    -6.947000000     1.940000000
H    -1.073000000    -6.951000000     1.178000000
H     0.202000000    -6.332000000     1.708000000
O     2.842000000    -4.892000000    -1.841000000
H     3.025000000    -4.971000000    -2.777000000
H     2.479000000    -5.743000000    -1.596000000
O     0.276000000    -5.968000000     6.761000000
H     0.431000000    -6.037000000     5.818000000
H    -0.594000000    -5.578000000     6.833000000
O     0.996000000    -9.952000000    -0.746000000
H     1.410000000   -10.747000000    -0.410000000
H     1.663000000    -9.553000000    -1.306000000
O     0.348000000    -6.878000000    -1.852000000
H     0.261000000    -6.167000000    -1.217000000
H     0.454000000    -7.665000000    -1.317000000
O     3.928000000    -3.810000000     2.831000000
H     4.428000000    -4.001000000     2.038000000
H     3.057000000    -4.167000000     2.658000000
O    -3.635000000    -8.731000000     0.968000000
H    -3.367000000    -9.540000000     0.532000000
H    -3.150000000    -8.042000000     0.513000000
O     5.969000000    -3.672000000     4.544000000
H     5.332000000    -3.461000000     3.861000000
H     5.784000000    -4.582000000     4.772000000
