215
-1448.90656
C    -1.788000000    -0.729000000     4.930000000
H    -2.736000000    -0.852000000     4.414000000
C    -0.998000000     0.383000000     4.783000000
C     0.239000000     0.389000000     5.420000000
H     0.858000000     1.267000000     5.259000000
C    -1.430000000     1.449000000     3.815000000
O    -2.842000000     1.767000000     3.913000000
H    -1.266000000     1.056000000     2.801000000
O    -0.699000000     2.750000000     4.069000000
C    -0.209000000     3.532000000     3.037000000
C     1.086000000     3.362000000     2.726000000
H     1.683000000     2.687000000     3.334000000
C     1.674000000     4.004000000     1.645000000
O     2.940000000     3.545000000     1.420000000
C     0.883000000     4.802000000     0.754000000
C     1.570000000     5.502000000    -0.415000000
H     1.003000000     6.395000000    -0.686000000
C     1.443000000     4.492000000    -1.607000000
C     0.324000000     4.470000000    -2.465000000
H    -0.528000000     5.127000000    -2.314000000
H     2.622000000     5.664000000    -0.174000000
C    -0.457000000     4.987000000     1.111000000
H    -1.022000000     5.764000000     0.602000000
C    -1.036000000     4.212000000     2.140000000
C    -2.538000000     4.282000000     2.470000000
H    -2.927000000     5.204000000     2.033000000
H    -2.720000000     4.424000000     3.538000000
C    -3.272000000     3.059000000     1.914000000
C    -3.848000000     3.139000000     0.609000000
H    -3.667000000     3.995000000    -0.037000000
C    -3.504000000     1.959000000     2.721000000
C    -4.275000000     0.874000000     2.195000000
H    -4.442000000     0.011000000     2.834000000
C    -4.722000000     0.875000000     0.839000000
O    -5.140000000    -0.271000000     0.197000000
C    -4.219000000    -0.930000000    -0.712000000
C    -4.193000000    -2.454000000    -0.604000000
C    -4.152000000    -3.259000000    -1.775000000
H    -4.168000000    -2.853000000    -2.783000000
C    -4.173000000    -2.994000000     0.658000000
H    -4.185000000    -2.365000000     1.544000000
O    -4.556000000    -0.508000000    -2.103000000
H    -3.182000000    -0.785000000    -0.375000000
C    -4.539000000     2.095000000     0.075000000
C    -4.989000000     2.168000000    -1.387000000
H    -5.313000000     3.174000000    -1.663000000
H    -5.929000000     1.633000000    -1.539000000
C    -3.838000000     1.793000000    -2.331000000
C    -2.965000000     2.751000000    -2.890000000
H    -3.036000000     3.801000000    -2.619000000
C    -3.777000000     0.435000000    -2.750000000
C    -2.774000000     0.042000000    -3.633000000
H    -2.564000000    -1.014000000    -3.783000000
C    -1.881000000     0.992000000    -4.155000000
O    -0.715000000     0.514000000    -4.718000000
C     0.552000000     0.533000000    -4.030000000
C     1.291000000    -0.778000000    -4.201000000
C     0.585000000    -1.987000000    -4.075000000
H    -0.471000000    -1.971000000    -3.817000000
C     2.631000000    -0.766000000    -4.404000000
H     3.142000000     0.194000000    -4.426000000
O     1.241000000     1.620000000    -4.547000000
H     0.403000000     0.698000000    -2.953000000
C    -1.959000000     2.333000000    -3.784000000
C    -1.008000000     3.443000000    -4.284000000
H    -1.504000000     4.416000000    -4.306000000
H    -0.894000000     3.294000000    -5.359000000
C     0.255000000     3.483000000    -3.464000000
C     1.375000000     2.685000000    -3.704000000
C     2.512000000     2.745000000    -2.914000000
H     3.364000000     2.119000000    -3.167000000
C     2.435000000     3.550000000    -1.817000000
O     3.400000000     3.427000000    -0.867000000
C     3.074000000     2.626000000     0.280000000
H     2.138000000     2.087000000     0.074000000
C     4.104000000     1.575000000     0.595000000
C     4.172000000     1.010000000     1.848000000
H     3.315000000     1.271000000     2.465000000
C     5.044000000     1.093000000    -0.381000000
H     4.921000000     1.440000000    -1.404000000
C     5.889000000    -0.032000000    -0.066000000
O     6.691000000    -0.679000000    -1.019000000
C     5.909000000    -0.535000000     1.228000000
H     6.477000000    -1.449000000     1.381000000
C     5.120000000     0.031000000     2.186000000
O     5.108000000    -0.586000000     3.395000000
C     4.667000000     0.031000000     4.611000000
C     3.570000000    -0.494000000     5.207000000
H     2.974000000    -1.268000000     4.731000000
C     5.406000000     1.083000000     5.272000000
H     6.332000000     1.507000000     4.891000000
C     5.024000000     1.505000000     6.549000000
H     5.670000000     2.137000000     7.153000000
C     3.809000000     1.021000000     7.031000000
H     3.529000000     1.373000000     8.020000000
C     3.011000000     0.134000000     6.313000000
O     1.942000000    -0.512000000     6.878000000
C     0.685000000    -0.552000000     6.293000000
C    -0.200000000    -1.588000000     6.577000000
H     0.124000000    -2.436000000     7.174000000
C    -1.386000000    -1.746000000     5.845000000
O    -2.161000000    -2.896000000     6.062000000
C    -3.156000000    -3.361000000     5.246000000
C    -2.912000000    -3.726000000     3.951000000
H    -2.030000000    -3.366000000     3.429000000
C    -4.429000000    -3.611000000     5.851000000
H    -4.615000000    -3.339000000     6.887000000
C    -5.367000000    -4.337000000     5.126000000
H    -6.345000000    -4.564000000     5.540000000
C    -5.131000000    -4.756000000     3.783000000
H    -5.969000000    -5.244000000     3.292000000
C    -3.899000000    -4.397000000     3.234000000
O    -3.637000000    -5.014000000     1.996000000
C    -3.993000000    -4.377000000     0.775000000
C    -3.958000000    -5.174000000    -0.345000000
H    -3.849000000    -6.253000000    -0.275000000
C    -3.984000000    -4.626000000    -1.601000000
O    -3.781000000    -5.478000000    -2.682000000
C    -2.935000000    -5.188000000    -3.760000000
C    -1.562000000    -5.013000000    -3.539000000
H    -1.069000000    -5.094000000    -2.574000000
C    -3.513000000    -4.831000000    -5.010000000
H    -4.597000000    -4.883000000    -5.071000000
C    -2.631000000    -4.376000000    -6.078000000
H    -3.058000000    -4.132000000    -7.047000000
C    -1.240000000    -4.363000000    -5.912000000
H    -0.661000000    -4.075000000    -6.785000000
C    -0.707000000    -4.640000000    -4.568000000
O     0.647000000    -4.441000000    -4.318000000
C     1.280000000    -3.192000000    -4.266000000
C     2.596000000    -3.148000000    -4.638000000
H     3.066000000    -4.086000000    -4.922000000
C     3.293000000    -1.943000000    -4.674000000
O     4.611000000    -2.007000000    -5.059000000
C     5.518000000    -1.223000000    -4.389000000
C     6.339000000    -0.408000000    -5.162000000
H     6.129000000    -0.365000000    -6.228000000
C     7.347000000     0.316000000    -4.564000000
H     7.874000000     1.077000000    -5.134000000
C     7.426000000     0.367000000    -3.178000000
H     8.119000000     1.122000000    -2.816000000
C     6.578000000    -0.475000000    -2.366000000
C     5.685000000    -1.317000000    -3.002000000
H     5.050000000    -2.044000000    -2.502000000
C     0.785000000    -1.546000000     1.903000000
H     1.211000000    -1.689000000     2.893000000
C     0.541000000    -0.293000000     1.432000000
H     0.808000000     0.572000000     2.035000000
C    -0.103000000    -0.120000000     0.207000000
H    -0.439000000     0.769000000    -0.122000000
C    -0.372000000    -1.225000000    -0.575000000
H    -0.903000000    -1.196000000    -1.523000000
C    -0.091000000    -2.523000000    -0.033000000
H    -0.372000000    -3.412000000    -0.591000000
C     0.582000000    -2.659000000     1.170000000
C     0.866000000    -4.020000000     1.781000000
O     0.521000000    -4.991000000     1.107000000
O     1.459000000    -4.161000000     2.797000000
O     1.986000000    -4.927000000     6.884000000
H     1.667000000    -4.717000000     7.761000000
H     1.887000000    -5.876000000     6.813000000
O     0.364000000    -7.786000000    -2.738000000
H     0.677000000    -7.253000000    -2.007000000
H    -0.239000000    -8.412000000    -2.336000000
O     3.132000000    -8.151000000     4.260000000
H     3.100000000    -7.712000000     3.411000000
H     3.700000000    -7.597000000     4.796000000
O    -1.749000000    -6.163000000     6.526000000
H    -1.047000000    -5.671000000     6.102000000
H    -1.703000000    -5.903000000     7.446000000
O     3.850000000    -3.621000000     3.274000000
H     3.883000000    -3.399000000     4.205000000
H     2.923000000    -3.784000000     3.100000000
O     0.003000000    -7.355000000     3.960000000
H     0.553000000    -7.447000000     3.182000000
H     0.206000000    -6.481000000     4.294000000
O     0.221000000    -4.710000000     4.977000000
H     0.987000000    -4.673000000     5.550000000
H     0.572000000    -4.565000000     4.098000000
O    -0.024000000   -10.091000000    -0.093000000
H    -0.089000000   -10.123000000    -1.047000000
H    -0.063000000    -9.158000000     0.119000000
O     5.222000000    -5.114000000     1.248000000
H     5.385000000    -6.031000000     1.470000000
H     4.793000000    -4.752000000     2.023000000
O     1.753000000   -10.130000000     2.214000000
H     1.891000000    -9.192000000     2.076000000
H     1.364000000   -10.437000000     1.395000000
O    -0.907000000    -7.357000000     1.215000000
H    -1.227000000    -7.508000000     2.105000000
H    -0.559000000    -6.465000000     1.234000000
O     4.003000000    -4.475000000    -1.147000000
H     3.641000000    -3.591000000    -1.074000000
H     4.371000000    -4.654000000    -0.282000000
O     4.213000000    -3.441000000     6.059000000
H     4.425000000    -3.052000000     6.907000000
H     3.421000000    -3.953000000     6.222000000
O     2.012000000    -6.980000000     1.838000000
H     2.595000000    -6.983000000     1.078000000
H     1.445000000    -6.221000000     1.702000000
O     4.533000000    -6.217000000     5.538000000
H     4.823000000    -5.862000000     6.379000000
H     4.239000000    -5.452000000     5.044000000
O     2.119000000    -6.349000000    -0.763000000
H     1.486000000    -5.798000000    -0.303000000
H     2.793000000    -5.739000000    -1.064000000
O     3.028000000    -1.980000000    -0.873000000
H     2.287000000    -1.479000000    -1.214000000
H     3.104000000    -1.703000000     0.040000000
O    -2.125000000    -9.224000000     3.557000000
H    -2.553000000    -9.027000000     4.391000000
H    -1.286000000    -8.766000000     3.604000000
O     5.387000000    -7.712000000     2.081000000
H     5.641000000    -8.104000000     2.916000000
H     5.243000000    -8.459000000     1.499000000
