215
-1452.40075
C    -2.072000000    -0.919000000     4.948000000
H    -2.841000000    -0.979000000     4.182000000
C    -1.219000000     0.241000000     5.018000000
C    -0.184000000     0.227000000     5.889000000
H     0.395000000     1.139000000     6.015000000
C    -1.550000000     1.442000000     4.021000000
O    -3.004000000     1.785000000     4.056000000
H    -1.349000000     1.248000000     2.957000000
O    -0.673000000     2.550000000     4.342000000
C    -0.074000000     3.317000000     3.415000000
C     1.255000000     3.024000000     3.098000000
H     1.839000000     2.260000000     3.604000000
C     1.813000000     3.624000000     1.954000000
O     3.108000000     3.301000000     1.685000000
C     1.097000000     4.505000000     1.143000000
C     1.771000000     5.159000000    -0.087000000
H     1.358000000     6.131000000    -0.364000000
C     1.733000000     4.240000000    -1.310000000
C     0.800000000     4.533000000    -2.306000000
H    -0.008000000     5.241000000    -2.139000000
H     2.828000000     5.365000000     0.094000000
C    -0.205000000     4.854000000     1.488000000
H    -0.749000000     5.548000000     0.853000000
C    -0.801000000     4.194000000     2.608000000
C    -2.264000000     4.424000000     2.915000000
H    -2.589000000     5.418000000     2.600000000
H    -2.345000000     4.404000000     4.004000000
C    -3.187000000     3.320000000     2.200000000
C    -3.513000000     3.496000000     0.849000000
H    -3.273000000     4.489000000     0.477000000
C    -3.470000000     2.068000000     2.869000000
C    -3.986000000     1.050000000     2.120000000
H    -3.897000000     0.030000000     2.487000000
C    -4.341000000     1.203000000     0.771000000
O    -4.714000000     0.081000000     0.129000000
C    -3.868000000    -0.472000000    -0.804000000
C    -3.867000000    -1.992000000    -0.807000000
C    -3.515000000    -2.768000000    -1.950000000
H    -3.275000000    -2.344000000    -2.921000000
C    -4.067000000    -2.635000000     0.414000000
H    -4.410000000    -2.102000000     1.298000000
O    -4.124000000    -0.005000000    -2.168000000
H    -2.804000000    -0.271000000    -0.608000000
C    -4.143000000     2.439000000     0.093000000
C    -4.515000000     2.715000000    -1.379000000
H    -4.828000000     3.757000000    -1.478000000
H    -5.472000000     2.206000000    -1.512000000
C    -3.460000000     2.252000000    -2.418000000
C    -2.643000000     3.197000000    -3.030000000
H    -2.801000000     4.256000000    -2.838000000
C    -3.304000000     0.920000000    -2.733000000
C    -2.327000000     0.567000000    -3.651000000
H    -2.143000000    -0.499000000    -3.767000000
C    -1.533000000     1.506000000    -4.354000000
O    -0.522000000     1.026000000    -5.201000000
C     0.713000000     0.689000000    -4.581000000
C     1.299000000    -0.638000000    -4.932000000
C     0.473000000    -1.670000000    -5.420000000
H    -0.579000000    -1.460000000    -5.593000000
C     2.673000000    -0.823000000    -4.675000000
H     3.298000000     0.029000000    -4.417000000
O     1.584000000     1.841000000    -4.678000000
H     0.451000000     0.657000000    -3.513000000
C    -1.588000000     2.795000000    -3.848000000
C    -0.559000000     3.753000000    -4.371000000
H    -0.984000000     4.747000000    -4.522000000
H    -0.307000000     3.468000000    -5.394000000
C     0.632000000     3.634000000    -3.426000000
C     1.653000000     2.697000000    -3.637000000
C     2.675000000     2.507000000    -2.713000000
H     3.504000000     1.864000000    -2.997000000
C     2.720000000     3.226000000    -1.502000000
O     3.722000000     2.993000000    -0.575000000
C     3.292000000     2.294000000     0.625000000
H     2.360000000     1.741000000     0.435000000
C     4.332000000     1.286000000     1.056000000
C     4.393000000     0.912000000     2.416000000
H     3.814000000     1.553000000     3.076000000
C     4.953000000     0.478000000     0.048000000
H     4.773000000     0.704000000    -1.000000000
C     5.656000000    -0.706000000     0.462000000
O     6.362000000    -1.523000000    -0.428000000
C     5.692000000    -1.042000000     1.869000000
H     6.257000000    -1.933000000     2.130000000
C     5.017000000    -0.231000000     2.790000000
O     5.064000000    -0.604000000     4.084000000
C     4.295000000    -0.127000000     5.112000000
C     3.308000000    -0.886000000     5.672000000
H     3.009000000    -1.859000000     5.291000000
C     4.734000000     1.118000000     5.603000000
H     5.581000000     1.681000000     5.217000000
C     4.054000000     1.622000000     6.724000000
H     4.417000000     2.447000000     7.333000000
C     2.982000000     0.911000000     7.205000000
H     2.562000000     1.215000000     8.160000000
C     2.583000000    -0.340000000     6.735000000
O     1.436000000    -0.939000000     7.248000000
C     0.161000000    -0.875000000     6.665000000
C    -0.598000000    -2.046000000     6.582000000
H    -0.415000000    -2.936000000     7.180000000
C    -1.738000000    -2.053000000     5.761000000
O    -2.489000000    -3.188000000     5.700000000
C    -3.557000000    -3.447000000     4.867000000
C    -3.319000000    -3.992000000     3.637000000
H    -2.294000000    -4.220000000     3.358000000
C    -4.837000000    -3.068000000     5.333000000
H    -4.984000000    -2.542000000     6.273000000
C    -5.929000000    -3.353000000     4.445000000
H    -6.925000000    -3.014000000     4.718000000
C    -5.731000000    -4.025000000     3.232000000
H    -6.543000000    -4.438000000     2.639000000
C    -4.414000000    -4.240000000     2.844000000
O    -4.198000000    -4.861000000     1.615000000
C    -4.072000000    -4.073000000     0.437000000
C    -3.686000000    -4.766000000    -0.693000000
H    -3.530000000    -5.837000000    -0.596000000
C    -3.419000000    -4.193000000    -1.933000000
O    -3.084000000    -5.100000000    -2.937000000
C    -2.747000000    -4.739000000    -4.209000000
C    -1.481000000    -4.279000000    -4.478000000
H    -0.718000000    -4.278000000    -3.704000000
C    -3.601000000    -5.046000000    -5.272000000
H    -4.654000000    -5.261000000    -5.111000000
C    -3.147000000    -4.878000000    -6.603000000
H    -3.816000000    -5.083000000    -7.435000000
C    -1.847000000    -4.466000000    -6.901000000
H    -1.493000000    -4.465000000    -7.928000000
C    -1.051000000    -4.228000000    -5.829000000
O     0.356000000    -3.967000000    -6.091000000
C     1.041000000    -2.917000000    -5.731000000
C     2.411000000    -3.169000000    -5.440000000
H     2.882000000    -4.133000000    -5.615000000
C     3.196000000    -2.099000000    -4.977000000
O     4.510000000    -2.408000000    -4.855000000
C     5.368000000    -1.784000000    -4.022000000
C     6.399000000    -0.998000000    -4.533000000
H     6.550000000    -0.946000000    -5.609000000
C     7.325000000    -0.336000000    -3.715000000
H     7.922000000     0.411000000    -4.231000000
C     7.330000000    -0.539000000    -2.397000000
H     8.000000000     0.023000000    -1.751000000
C     6.388000000    -1.390000000    -1.780000000
C     5.411000000    -1.999000000    -2.598000000
H     4.649000000    -2.642000000    -2.165000000
C     0.856000000    -1.935000000     2.761000000
H     1.359000000    -1.870000000     3.723000000
C     0.651000000    -0.801000000     2.008000000
H     1.120000000     0.128000000     2.322000000
C    -0.119000000    -0.822000000     0.852000000
H    -0.210000000     0.192000000     0.432000000
C    -0.580000000    -2.034000000     0.350000000
H    -1.182000000    -2.109000000    -0.552000000
C    -0.427000000    -3.197000000     1.104000000
H    -0.854000000    -4.130000000     0.743000000
C     0.305000000    -3.149000000     2.282000000
C     0.513000000    -4.360000000     3.169000000
O    -0.032000000    -5.406000000     2.847000000
O     1.144000000    -4.254000000     4.178000000
O     1.314000000    -4.972000000     8.536000000
H     1.544000000    -5.655000000     9.166000000
H     0.565000000    -4.525000000     8.930000000
O    -0.455000000    -6.433000000    -1.739000000
H    -0.103000000    -6.473000000    -0.850000000
H    -1.114000000    -7.126000000    -1.768000000
O    -1.902000000    -7.074000000     7.765000000
H    -1.285000000    -6.787000000     7.093000000
H    -1.558000000    -6.706000000     8.579000000
O     3.599000000    -4.186000000     4.254000000
H     3.759000000    -4.185000000     5.197000000
H     2.652000000    -4.302000000     4.171000000
O    -1.470000000    -7.055000000     4.184000000
H    -1.166000000    -6.443000000     3.514000000
H    -1.145000000    -6.691000000     5.007000000
O     0.229000000    -5.995000000     6.087000000
H     0.855000000    -5.805000000     6.785000000
H     0.473000000    -5.402000000     5.377000000
O     0.037000000    -9.853000000    -0.482000000
H    -0.254000000    -9.252000000    -1.168000000
H     0.681000000    -9.352000000     0.019000000
O    -4.241000000    -7.671000000     4.123000000
H    -3.378000000    -7.324000000     3.898000000
H    -4.784000000    -7.478000000     3.359000000
O     4.230000000    -5.760000000     2.082000000
H     5.066000000    -6.215000000     2.187000000
H     4.210000000    -5.129000000     2.801000000
O     4.693000000    -9.261000000     2.007000000
H     5.228000000    -8.936000000     2.731000000
H     3.838000000    -9.435000000     2.400000000
O     2.188000000    -9.444000000     3.007000000
H     2.361000000    -8.704000000     3.590000000
H     1.234000000    -9.473000000     2.932000000
O     0.268000000    -6.975000000     0.952000000
H     0.904000000    -7.600000000     1.300000000
H     0.136000000    -6.347000000     1.662000000
O     2.986000000    -5.177000000    -0.207000000
H     3.161000000    -4.237000000    -0.253000000
H     3.458000000    -5.471000000     0.572000000
O     3.629000000    -4.497000000     7.052000000
H     3.924000000    -3.731000000     7.543000000
H     2.729000000    -4.637000000     7.345000000
O     2.230000000    -6.924000000     4.023000000
H     2.717000000    -6.699000000     3.230000000
H     1.757000000    -6.123000000     4.248000000
O     3.783000000    -7.735000000     6.404000000
H     3.844000000    -6.794000000     6.571000000
H     3.347000000    -7.800000000     5.555000000
O     2.050000000    -6.174000000    -2.468000000
H     1.099000000    -6.227000000    -2.371000000
H     2.359000000    -5.843000000    -1.624000000
O     2.376000000    -2.408000000    -0.457000000
H     2.131000000    -2.131000000     0.426000000
H     1.575000000    -2.784000000    -0.821000000
O    -0.402000000    -9.407000000     3.420000000
H    -0.312000000    -9.836000000     4.271000000
H    -0.789000000    -8.555000000     3.621000000
