215
-1466.92103
C    -1.366000000    -0.547000000     4.698000000
H    -2.327000000    -0.419000000     4.205000000
C    -0.433000000     0.452000000     4.786000000
C     0.783000000     0.252000000     5.459000000
H     1.512000000     1.031000000     5.668000000
C    -0.706000000     1.659000000     3.921000000
O    -2.060000000     2.218000000     4.157000000
H    -0.630000000     1.426000000     2.849000000
O     0.167000000     2.807000000     4.135000000
C     0.786000000     3.395000000     3.040000000
C     1.988000000     2.831000000     2.645000000
H     2.563000000     2.162000000     3.280000000
C     2.564000000     3.247000000     1.440000000
O     3.657000000     2.633000000     1.005000000
C     1.943000000     4.264000000     0.692000000
C     2.529000000     4.848000000    -0.523000000
H     2.267000000     5.904000000    -0.620000000
C     2.109000000     4.065000000    -1.709000000
C     0.934000000     4.355000000    -2.453000000
H     0.274000000     5.197000000    -2.255000000
H     3.616000000     4.832000000    -0.419000000
C     0.651000000     4.726000000     1.067000000
H     0.197000000     5.515000000     0.473000000
C     0.106000000     4.343000000     2.273000000
C    -1.295000000     4.762000000     2.753000000
H    -1.553000000     5.779000000     2.452000000
H    -1.251000000     4.767000000     3.844000000
C    -2.314000000     3.752000000     2.252000000
C    -2.876000000     4.088000000     1.036000000
H    -2.611000000     4.999000000     0.505000000
C    -2.729000000     2.623000000     2.993000000
C    -3.752000000     1.855000000     2.523000000
H    -4.040000000     1.003000000     3.135000000
C    -4.283000000     2.093000000     1.266000000
O    -5.187000000     1.137000000     0.698000000
C    -4.474000000     0.269000000    -0.210000000
C    -4.692000000    -1.190000000     0.078000000
C    -3.910000000    -2.064000000    -0.608000000
H    -3.169000000    -1.703000000    -1.318000000
C    -5.430000000    -1.712000000     1.195000000
H    -6.063000000    -1.059000000     1.791000000
O    -4.791000000     0.644000000    -1.589000000
H    -3.419000000     0.514000000    -0.017000000
C    -3.845000000     3.212000000     0.510000000
C    -4.392000000     3.486000000    -0.824000000
H    -4.311000000     4.538000000    -1.104000000
H    -5.452000000     3.233000000    -0.897000000
C    -3.720000000     2.756000000    -1.990000000
C    -2.727000000     3.508000000    -2.616000000
H    -2.526000000     4.555000000    -2.403000000
C    -3.925000000     1.417000000    -2.283000000
C    -3.072000000     0.775000000    -3.188000000
H    -3.135000000    -0.287000000    -3.411000000
C    -2.076000000     1.446000000    -3.836000000
O    -1.328000000     0.780000000    -4.734000000
C     0.071000000     0.548000000    -4.348000000
C     0.642000000    -0.815000000    -4.766000000
C    -0.111000000    -2.022000000    -4.673000000
H    -1.197000000    -1.977000000    -4.635000000
C     2.006000000    -0.945000000    -5.024000000
H     2.722000000    -0.128000000    -5.044000000
O     0.949000000     1.592000000    -4.865000000
H     0.109000000     0.510000000    -3.250000000
C    -1.960000000     2.843000000    -3.564000000
C    -0.848000000     3.686000000    -4.226000000
H    -1.160000000     4.732000000    -4.271000000
H    -0.781000000     3.457000000    -5.291000000
C     0.582000000     3.579000000    -3.546000000
C     1.406000000     2.525000000    -3.914000000
C     2.595000000     2.233000000    -3.211000000
H     3.316000000     1.457000000    -3.457000000
C     2.900000000     3.010000000    -2.131000000
O     3.857000000     2.548000000    -1.294000000
C     3.457000000     1.807000000    -0.111000000
H     2.377000000     1.620000000    -0.209000000
C     4.192000000     0.503000000     0.000000000
C     4.046000000    -0.179000000     1.212000000
H     3.357000000     0.218000000     1.953000000
C     4.979000000    -0.157000000    -1.014000000
H     5.259000000     0.282000000    -1.969000000
C     5.533000000    -1.429000000    -0.788000000
O     6.413000000    -2.016000000    -1.665000000
C     5.381000000    -2.072000000     0.411000000
H     5.784000000    -3.062000000     0.607000000
C     4.598000000    -1.427000000     1.362000000
O     4.572000000    -2.204000000     2.519000000
C     4.537000000    -1.649000000     3.753000000
C     3.372000000    -1.715000000     4.522000000
H     2.451000000    -2.134000000     4.123000000
C     5.764000000    -1.214000000     4.344000000
H     6.697000000    -1.208000000     3.787000000
C     5.771000000    -0.918000000     5.711000000
H     6.669000000    -0.511000000     6.169000000
C     4.605000000    -0.987000000     6.433000000
H     4.565000000    -0.528000000     7.418000000
C     3.401000000    -1.356000000     5.877000000
O     2.240000000    -1.345000000     6.607000000
C     0.955000000    -0.983000000     6.140000000
C    -0.032000000    -1.981000000     6.111000000
H     0.146000000    -2.981000000     6.498000000
C    -1.211000000    -1.750000000     5.383000000
O    -2.202000000    -2.729000000     5.423000000
C    -3.532000000    -2.556000000     5.155000000
C    -4.024000000    -3.102000000     4.003000000
H    -3.439000000    -3.630000000     3.254000000
C    -4.344000000    -1.880000000     6.060000000
H    -4.042000000    -1.547000000     7.050000000
C    -5.707000000    -1.776000000     5.708000000
H    -6.360000000    -1.190000000     6.350000000
C    -6.267000000    -2.312000000     4.550000000
H    -7.340000000    -2.253000000     4.390000000
C    -5.391000000    -3.011000000     3.719000000
O    -5.922000000    -3.610000000     2.595000000
C    -5.464000000    -3.109000000     1.416000000
C    -4.725000000    -3.963000000     0.624000000
H    -4.706000000    -5.040000000     0.772000000
C    -3.988000000    -3.454000000    -0.379000000
O    -3.201000000    -4.263000000    -1.184000000
C    -3.083000000    -4.135000000    -2.508000000
C    -1.798000000    -4.171000000    -2.935000000
H    -0.894000000    -4.084000000    -2.338000000
C    -4.198000000    -4.154000000    -3.337000000
H    -5.169000000    -4.296000000    -2.870000000
C    -3.958000000    -4.223000000    -4.711000000
H    -4.769000000    -4.274000000    -5.432000000
C    -2.662000000    -4.274000000    -5.162000000
H    -2.529000000    -4.381000000    -6.235000000
C    -1.563000000    -4.376000000    -4.314000000
O    -0.336000000    -4.439000000    -4.836000000
C     0.423000000    -3.271000000    -5.000000000
C     1.777000000    -3.403000000    -5.302000000
H     2.302000000    -4.300000000    -5.617000000
C     2.549000000    -2.217000000    -5.326000000
O     3.788000000    -2.456000000    -5.771000000
C     4.925000000    -2.066000000    -5.036000000
C     6.029000000    -1.606000000    -5.769000000
H     5.895000000    -1.523000000    -6.845000000
C     7.193000000    -1.339000000    -5.134000000
H     8.070000000    -1.061000000    -5.713000000
C     7.309000000    -1.411000000    -3.770000000
H     8.295000000    -1.313000000    -3.324000000
C     6.203000000    -1.815000000    -3.018000000
C     4.992000000    -2.138000000    -3.658000000
H     4.121000000    -2.451000000    -3.088000000
C    -0.193000000    -2.203000000     1.120000000
H    -0.717000000    -2.732000000     1.911000000
C    -0.548000000    -0.894000000     0.896000000
H    -1.230000000    -0.310000000     1.509000000
C    -0.065000000    -0.248000000    -0.295000000
H    -0.311000000     0.768000000    -0.511000000
C     0.809000000    -0.918000000    -1.131000000
H     1.261000000    -0.483000000    -2.019000000
C     1.130000000    -2.262000000    -0.865000000
H     1.778000000    -2.722000000    -1.607000000
C     0.616000000    -2.928000000     0.237000000
C     0.873000000    -4.432000000     0.416000000
O     1.064000000    -5.229000000    -0.471000000
O     0.872000000    -4.896000000     1.570000000
O    -0.849000000    -6.956000000    -1.277000000
H    -1.287000000    -6.989000000    -0.427000000
H    -0.177000000    -6.281000000    -1.174000000
O     0.119000000    -9.878000000    -1.424000000
H    -0.454000000   -10.442000000    -0.904000000
H    -0.290000000    -9.013000000    -1.376000000
O     3.142000000    -8.137000000     3.096000000
H     2.850000000    -7.744000000     2.274000000
H     2.402000000    -8.023000000     3.692000000
O    -1.292000000    -8.218000000    -3.576000000
H    -0.486000000    -8.097000000    -4.078000000
H    -1.152000000    -7.716000000    -2.774000000
O     5.091000000    -5.274000000     1.919000000
H     5.917000000    -4.955000000     2.283000000
H     4.440000000    -5.072000000     2.591000000
O     0.999000000   -10.271000000     1.853000000
H     1.418000000   -10.712000000     1.114000000
H     1.210000000    -9.345000000     1.729000000
O     0.257000000    -7.408000000     4.180000000
H     0.127000000    -6.940000000     5.005000000
H    -0.324000000    -6.966000000     3.561000000
O     1.218000000    -6.732000000    -4.451000000
H     1.979000000    -6.456000000    -3.940000000
H     0.786000000    -5.915000000    -4.697000000
O    -1.409000000    -5.962000000     2.739000000
H    -0.725000000    -5.324000000     2.534000000
H    -1.572000000    -6.414000000     1.911000000
O    -2.381000000    -7.411000000     0.732000000
H    -3.153000000    -7.133000000     1.224000000
H    -2.067000000    -8.186000000     1.197000000
O     5.363000000    -6.939000000    -0.224000000
H     6.124000000    -7.350000000     0.186000000
H     4.954000000    -6.437000000     0.481000000
O     1.506000000    -7.507000000     0.713000000
H     1.578000000    -6.587000000     0.969000000
H     1.269000000    -7.479000000    -0.214000000
O     2.693000000    -5.513000000    -2.704000000
H     3.509000000    -5.237000000    -2.287000000
H     2.065000000    -5.574000000    -1.984000000
O     4.903000000    -8.564000000    -2.348000000
H     4.881000000    -8.021000000    -1.560000000
H     5.779000000    -8.950000000    -2.348000000
O     1.710000000    -4.821000000     4.498000000
H     1.373000000    -4.971000000     3.614000000
H     0.973000000    -5.029000000     5.073000000
O     4.551000000    -5.151000000     5.672000000
H     3.847000000    -5.209000000     5.026000000
H     4.136000000    -4.771000000     6.446000000
O     5.531000000    -5.052000000    -1.988000000
H     5.559000000    -5.766000000    -1.350000000
H     6.161000000    -4.411000000    -1.658000000
O    -4.171000000    -7.234000000    -1.711000000
H    -3.611000000    -7.916000000    -1.341000000
H    -3.603000000    -6.467000000    -1.776000000
O    -2.955000000    -6.556000000     4.811000000
H    -2.440000000    -6.254000000     4.062000000
H    -2.778000000    -5.913000000     5.497000000
