215
-1451.87344
C    -0.227000000     0.479000000     4.904000000
H    -1.241000000     0.408000000     4.518000000
C     0.649000000     1.472000000     4.466000000
C     1.999000000     1.455000000     4.842000000
H     2.697000000     2.140000000     4.367000000
C     0.056000000     2.478000000     3.496000000
O    -1.244000000     2.994000000     3.861000000
H    -0.052000000     1.927000000     2.550000000
O     0.842000000     3.565000000     3.187000000
C     1.174000000     3.864000000     1.937000000
C     2.384000000     3.466000000     1.471000000
H     3.028000000     2.854000000     2.096000000
C     2.711000000     3.766000000     0.146000000
O     3.795000000     3.100000000    -0.379000000
C     1.816000000     4.479000000    -0.636000000
C     2.109000000     4.600000000    -2.160000000
H     1.625000000     5.548000000    -2.405000000
C     1.653000000     3.418000000    -2.967000000
C     0.387000000     3.473000000    -3.477000000
H    -0.279000000     4.285000000    -3.195000000
H     3.159000000     4.761000000    -2.415000000
C     0.626000000     4.957000000    -0.107000000
H    -0.011000000     5.557000000    -0.752000000
C     0.308000000     4.656000000     1.221000000
C    -0.959000000     5.189000000     1.844000000
H    -1.282000000     6.058000000     1.268000000
H    -0.765000000     5.616000000     2.830000000
C    -2.037000000     4.192000000     1.824000000
C    -2.816000000     4.090000000     0.681000000
H    -2.694000000     4.790000000    -0.142000000
C    -2.117000000     3.175000000     2.845000000
C    -3.040000000     2.136000000     2.657000000
H    -3.094000000     1.408000000     3.462000000
C    -3.867000000     2.116000000     1.495000000
O    -4.751000000     1.069000000     1.425000000
C    -4.386000000     0.051000000     0.443000000
C    -4.688000000    -1.350000000     0.943000000
C    -5.022000000    -2.432000000     0.091000000
H    -5.102000000    -2.328000000    -0.988000000
C    -4.505000000    -1.605000000     2.302000000
H    -4.198000000    -0.827000000     2.997000000
O    -5.190000000     0.361000000    -0.765000000
H    -3.326000000     0.087000000     0.153000000
C    -3.745000000     3.078000000     0.462000000
C    -4.527000000     3.161000000    -0.803000000
H    -4.572000000     4.208000000    -1.108000000
H    -5.576000000     2.916000000    -0.622000000
C    -4.013000000     2.211000000    -1.845000000
C    -3.123000000     2.710000000    -2.752000000
H    -3.100000000     3.795000000    -2.814000000
C    -4.348000000     0.831000000    -1.781000000
C    -3.710000000    -0.064000000    -2.631000000
H    -4.016000000    -1.107000000    -2.618000000
C    -2.716000000     0.463000000    -3.486000000
O    -2.130000000    -0.472000000    -4.255000000
C    -0.721000000    -0.709000000    -3.999000000
C    -0.394000000    -2.163000000    -3.911000000
C    -1.368000000    -3.021000000    -3.335000000
H    -2.318000000    -2.604000000    -3.011000000
C     0.933000000    -2.629000000    -4.146000000
H     1.722000000    -1.921000000    -4.388000000
O     0.128000000     0.069000000    -4.850000000
H    -0.451000000    -0.294000000    -3.017000000
C    -2.493000000     1.859000000    -3.602000000
C    -1.538000000     2.446000000    -4.614000000
H    -1.917000000     3.443000000    -4.850000000
H    -1.648000000     1.817000000    -5.500000000
C    -0.110000000     2.362000000    -4.158000000
C     0.673000000     1.209000000    -4.300000000
C     2.010000000     1.181000000    -3.825000000
H     2.518000000     0.222000000    -3.779000000
C     2.404000000     2.263000000    -3.035000000
O     3.617000000     1.998000000    -2.466000000
C     3.675000000     1.823000000    -1.049000000
H     2.727000000     1.372000000    -0.718000000
C     4.830000000     0.848000000    -0.803000000
C     5.436000000     0.799000000     0.443000000
H     5.128000000     1.565000000     1.151000000
C     5.120000000    -0.128000000    -1.740000000
H     4.699000000    -0.196000000    -2.740000000
C     6.132000000    -1.056000000    -1.469000000
O     6.454000000    -1.894000000    -2.513000000
C     6.781000000    -1.125000000    -0.213000000
H     7.503000000    -1.879000000     0.093000000
C     6.399000000    -0.206000000     0.765000000
O     7.034000000    -0.247000000     1.997000000
C     6.616000000     0.449000000     3.082000000
C     5.558000000    -0.021000000     3.864000000
H     5.206000000    -1.030000000     3.662000000
C     6.999000000     1.784000000     3.174000000
H     7.713000000     2.154000000     2.443000000
C     6.427000000     2.557000000     4.174000000
H     6.706000000     3.605000000     4.245000000
C     5.450000000     2.075000000     5.026000000
H     4.879000000     2.623000000     5.771000000
C     4.977000000     0.730000000     4.889000000
O     3.959000000     0.278000000     5.667000000
C     2.552000000     0.316000000     5.407000000
C     1.733000000    -0.683000000     5.902000000
H     2.183000000    -1.473000000     6.499000000
C     0.366000000    -0.570000000     5.731000000
O    -0.447000000    -1.642000000     6.102000000
C    -1.846000000    -1.626000000     6.032000000
C    -2.538000000    -2.390000000     5.078000000
H    -1.977000000    -3.058000000     4.429000000
C    -2.545000000    -0.719000000     6.832000000
H    -2.068000000    -0.197000000     7.657000000
C    -3.928000000    -0.548000000     6.620000000
H    -4.518000000     0.084000000     7.278000000
C    -4.607000000    -1.456000000     5.846000000
H    -5.684000000    -1.539000000     5.733000000
C    -3.883000000    -2.313000000     4.984000000
O    -4.542000000    -3.200000000     4.118000000
C    -4.692000000    -2.934000000     2.756000000
C    -5.094000000    -3.999000000     1.935000000
H    -5.379000000    -4.964000000     2.347000000
C    -5.280000000    -3.726000000     0.597000000
O    -5.786000000    -4.704000000    -0.239000000
C    -5.245000000    -4.992000000    -1.468000000
C    -3.907000000    -4.907000000    -1.608000000
H    -3.300000000    -4.637000000    -0.747000000
C    -6.097000000    -5.377000000    -2.491000000
H    -7.172000000    -5.498000000    -2.393000000
C    -5.506000000    -5.532000000    -3.773000000
H    -6.149000000    -5.787000000    -4.611000000
C    -4.122000000    -5.537000000    -3.905000000
H    -3.656000000    -5.820000000    -4.846000000
C    -3.316000000    -5.248000000    -2.794000000
O    -1.952000000    -5.435000000    -2.807000000
C    -1.095000000    -4.380000000    -3.100000000
C     0.237000000    -4.788000000    -3.279000000
H     0.513000000    -5.810000000    -3.032000000
C     1.204000000    -3.957000000    -3.868000000
O     2.506000000    -4.406000000    -3.763000000
C     3.715000000    -3.814000000    -4.115000000
C     4.102000000    -3.742000000    -5.436000000
H     3.404000000    -4.182000000    -6.144000000
C     5.191000000    -2.918000000    -5.787000000
H     5.407000000    -2.914000000    -6.853000000
C     5.976000000    -2.219000000    -4.887000000
H     6.903000000    -1.723000000    -5.164000000
C     5.578000000    -2.299000000    -3.549000000
C     4.492000000    -3.141000000    -3.184000000
H     4.329000000    -3.252000000    -2.115000000
C    -0.423000000    -2.866000000     1.017000000
H    -0.885000000    -3.487000000     1.780000000
C    -0.847000000    -1.525000000     0.752000000
H    -1.672000000    -1.130000000     1.341000000
C    -0.252000000    -0.696000000    -0.167000000
H    -0.688000000     0.307000000    -0.302000000
C     0.883000000    -1.208000000    -0.869000000
H     1.447000000    -0.591000000    -1.564000000
C     1.341000000    -2.529000000    -0.600000000
H     2.177000000    -2.977000000    -1.130000000
C     0.646000000    -3.382000000     0.286000000
C     1.076000000    -4.794000000     0.544000000
O     2.262000000    -5.056000000     0.355000000
O     0.393000000    -5.433000000     1.280000000
O     3.910000000    -5.110000000     4.304000000
H     3.773000000    -4.454000000     3.621000000
H     3.071000000    -5.567000000     4.370000000
O    -0.214000000    -7.732000000    -0.395000000
H    -1.153000000    -7.771000000    -0.213000000
H     0.138000000    -7.155000000     0.282000000
O     4.365000000    -9.210000000    -0.043000000
H     3.670000000    -8.625000000     0.257000000
H     4.535000000    -8.937000000    -0.945000000
O     1.362000000    -6.077000000     3.799000000
H     0.617000000    -6.661000000     3.941000000
H     1.094000000    -5.519000000     3.069000000
O     4.979000000    -4.721000000    -0.002000000
H     4.088000000    -5.021000000    -0.182000000
H     5.541000000    -5.363000000    -0.438000000
O     0.292000000   -11.052000000    -0.857000000
H     0.355000000   -10.097000000    -0.862000000
H    -0.123000000   -11.269000000    -1.692000000
O    -0.411000000    -8.825000000     3.084000000
H    -0.533000000    -9.448000000     2.368000000
H     0.328000000    -9.174000000     3.582000000
O     1.846000000    -8.140000000     5.780000000
H     2.522000000    -7.694000000     5.271000000
H     2.080000000    -9.067000000     5.729000000
O     1.201000000    -6.911000000    -5.526000000
H     0.946000000    -7.269000000    -4.676000000
H     2.031000000    -7.343000000    -5.729000000
O    -3.185000000    -8.406000000    -0.062000000
H    -4.102000000    -8.208000000    -0.253000000
H    -3.213000000    -8.895000000     0.761000000
O     4.316000000    -8.615000000    -2.803000000
H     3.790000000    -7.898000000    -2.448000000
H     3.701000000    -9.123000000    -3.332000000
O    -1.514000000    -6.390000000     2.822000000
H    -1.134000000    -7.263000000     2.919000000
H    -0.936000000    -5.944000000     2.204000000
O     5.869000000    -3.398000000     2.377000000
H     5.122000000    -2.853000000     2.623000000
H     5.578000000    -3.864000000     1.593000000
O     2.738000000    -7.584000000     1.418000000
H     2.222000000    -7.489000000     2.219000000
H     2.733000000    -6.711000000     1.025000000
O     3.008000000    -6.463000000    -1.775000000
H     2.567000000    -5.891000000    -1.147000000
H     3.010000000    -5.964000000    -2.592000000
O     3.154000000    -3.224000000     2.359000000
H     2.522000000    -2.558000000     2.089000000
H     3.021000000    -3.945000000     1.744000000
O     0.318000000    -8.952000000    -3.122000000
H     0.135000000    -8.443000000    -2.332000000
H    -0.509000000    -9.390000000    -3.322000000
O     5.322000000    -7.534000000     3.650000000
H     6.022000000    -7.059000000     4.099000000
H     4.863000000    -6.863000000     3.145000000
O    -2.124000000    -7.127000000     5.356000000
H    -2.316000000    -6.539000000     4.626000000
H    -2.976000000    -7.482000000     5.609000000
