215
-1459.83751
C     0.209000000     0.828000000     4.505000000
H    -0.821000000     0.835000000     4.157000000
C     0.995000000     1.910000000     3.988000000
C     2.380000000     1.874000000     4.121000000
H     2.993000000     2.573000000     3.557000000
C     0.216000000     2.784000000     3.065000000
O    -1.161000000     2.962000000     3.513000000
H     0.193000000     2.328000000     2.065000000
O     0.970000000     4.004000000     2.848000000
C     1.059000000     4.367000000     1.541000000
C     2.184000000     4.016000000     0.770000000
H     3.148000000     3.758000000     1.201000000
C     2.170000000     4.029000000    -0.596000000
O     3.320000000     3.564000000    -1.255000000
C     1.021000000     4.438000000    -1.291000000
C     1.119000000     4.523000000    -2.840000000
H     0.434000000     5.274000000    -3.238000000
C     0.702000000     3.208000000    -3.500000000
C    -0.619000000     3.044000000    -3.973000000
H    -1.370000000     3.823000000    -3.875000000
H     2.107000000     4.805000000    -3.210000000
C    -0.144000000     4.821000000    -0.570000000
H    -1.101000000     4.971000000    -1.064000000
C    -0.109000000     4.792000000     0.843000000
C    -1.395000000     5.207000000     1.571000000
H    -1.876000000     6.040000000     1.053000000
H    -1.276000000     5.448000000     2.629000000
C    -2.318000000     3.974000000     1.514000000
C    -3.366000000     3.871000000     0.558000000
H    -3.441000000     4.640000000    -0.206000000
C    -2.224000000     2.977000000     2.517000000
C    -3.041000000     1.861000000     2.544000000
H    -2.944000000     1.213000000     3.412000000
C    -4.024000000     1.779000000     1.579000000
O    -4.712000000     0.588000000     1.705000000
C    -4.397000000    -0.519000000     0.818000000
C    -4.563000000    -1.807000000     1.645000000
C    -4.805000000    -2.990000000     0.931000000
H    -4.943000000    -2.990000000    -0.147000000
C    -4.401000000    -1.809000000     3.008000000
H    -4.143000000    -0.920000000     3.577000000
O    -5.252000000    -0.483000000    -0.387000000
H    -3.394000000    -0.487000000     0.368000000
C    -4.210000000     2.745000000     0.514000000
C    -5.195000000     2.480000000    -0.616000000
H    -5.553000000     3.409000000    -1.065000000
H    -6.068000000     1.984000000    -0.186000000
C    -4.554000000     1.480000000    -1.688000000
C    -3.938000000     1.899000000    -2.889000000
H    -3.867000000     2.972000000    -3.050000000
C    -4.671000000     0.102000000    -1.475000000
C    -3.995000000    -0.765000000    -2.306000000
H    -4.012000000    -1.834000000    -2.112000000
C    -3.345000000    -0.390000000    -3.455000000
O    -2.566000000    -1.279000000    -4.132000000
C    -1.088000000    -1.182000000    -3.854000000
C    -0.434000000    -2.552000000    -3.657000000
C    -1.025000000    -3.398000000    -2.744000000
H    -1.969000000    -3.138000000    -2.272000000
C     0.834000000    -2.874000000    -4.136000000
H     1.379000000    -2.343000000    -4.912000000
O    -0.454000000    -0.486000000    -4.905000000
H    -0.990000000    -0.657000000    -2.892000000
C    -3.290000000     0.998000000    -3.753000000
C    -2.502000000     1.610000000    -4.879000000
H    -2.957000000     2.550000000    -5.199000000
H    -2.580000000     0.917000000    -5.719000000
C    -1.036000000     1.837000000    -4.504000000
C    -0.094000000     0.796000000    -4.649000000
C     1.250000000     0.932000000    -4.315000000
H     1.999000000     0.146000000    -4.378000000
C     1.611000000     2.125000000    -3.653000000
O     2.898000000     2.277000000    -3.188000000
C     3.188000000     2.187000000    -1.767000000
H     2.365000000     1.647000000    -1.275000000
C     4.491000000     1.495000000    -1.505000000
C     5.313000000     1.855000000    -0.447000000
H     5.157000000     2.758000000     0.137000000
C     4.727000000     0.284000000    -2.011000000
H     4.165000000     0.014000000    -2.901000000
C     5.804000000    -0.551000000    -1.620000000
O     6.161000000    -1.736000000    -2.255000000
C     6.587000000    -0.151000000    -0.582000000
H     7.498000000    -0.706000000    -0.372000000
C     6.352000000     1.035000000     0.007000000
O     7.190000000     1.505000000     1.016000000
C     6.736000000     1.898000000     2.249000000
C     5.738000000     1.161000000     2.916000000
H     5.261000000     0.282000000     2.490000000
C     7.323000000     2.998000000     2.876000000
H     8.164000000     3.586000000     2.517000000
C     6.846000000     3.436000000     4.105000000
H     7.209000000     4.284000000     4.678000000
C     5.772000000     2.723000000     4.717000000
H     5.398000000     2.981000000     5.704000000
C     5.210000000     1.572000000     4.141000000
O     4.330000000     0.745000000     4.816000000
C     2.939000000     0.844000000     4.838000000
C     2.214000000    -0.118000000     5.454000000
H     2.704000000    -0.851000000     6.090000000
C     0.840000000    -0.184000000     5.281000000
O     0.100000000    -1.252000000     5.833000000
C    -1.266000000    -1.262000000     6.064000000
C    -2.037000000    -2.222000000     5.529000000
H    -1.642000000    -2.964000000     4.841000000
C    -1.845000000    -0.257000000     6.833000000
H    -1.226000000     0.529000000     7.259000000
C    -3.220000000    -0.191000000     6.877000000
H    -3.621000000     0.656000000     7.429000000
C    -4.033000000    -1.247000000     6.467000000
H    -5.108000000    -1.263000000     6.628000000
C    -3.391000000    -2.298000000     5.753000000
O    -4.262000000    -3.170000000     5.074000000
C    -4.339000000    -3.085000000     3.662000000
C    -4.535000000    -4.300000000     3.013000000
H    -4.380000000    -5.244000000     3.530000000
C    -4.775000000    -4.221000000     1.656000000
O    -5.100000000    -5.341000000     0.970000000
C    -4.393000000    -5.719000000    -0.140000000
C    -3.033000000    -5.474000000    -0.247000000
H    -2.399000000    -4.968000000     0.477000000
C    -5.063000000    -6.399000000    -1.138000000
H    -6.134000000    -6.562000000    -1.039000000
C    -4.364000000    -6.780000000    -2.315000000
H    -4.833000000    -7.350000000    -3.113000000
C    -3.011000000    -6.530000000    -2.441000000
H    -2.430000000    -6.900000000    -3.282000000
C    -2.325000000    -5.829000000    -1.410000000
O    -0.997000000    -5.522000000    -1.515000000
C    -0.421000000    -4.607000000    -2.418000000
C     0.863000000    -4.945000000    -2.918000000
H     1.342000000    -5.912000000    -2.782000000
C     1.464000000    -4.045000000    -3.798000000
O     2.652000000    -4.341000000    -4.382000000
C     3.692000000    -3.466000000    -4.442000000
C     4.202000000    -3.104000000    -5.659000000
H     3.606000000    -3.300000000    -6.547000000
C     5.290000000    -2.245000000    -5.844000000
H     5.580000000    -2.015000000    -6.867000000
C     5.968000000    -1.770000000    -4.691000000
H     6.846000000    -1.129000000    -4.717000000
C     5.490000000    -2.163000000    -3.424000000
C     4.397000000    -3.058000000    -3.262000000
H     4.039000000    -3.209000000    -2.247000000
C     0.023000000    -2.124000000     1.388000000
H    -0.338000000    -2.523000000     2.332000000
C    -0.287000000    -0.843000000     1.050000000
H    -0.780000000    -0.215000000     1.787000000
C     0.120000000    -0.350000000    -0.193000000
H    -0.108000000     0.704000000    -0.570000000
C     0.940000000    -1.047000000    -0.993000000
H     1.233000000    -0.572000000    -1.926000000
C     1.308000000    -2.343000000    -0.650000000
H     1.993000000    -2.791000000    -1.365000000
C     0.868000000    -2.872000000     0.592000000
C     1.435000000    -4.188000000     1.092000000
O     2.436000000    -4.698000000     0.562000000
O     0.986000000    -4.674000000     2.055000000
O    -2.229000000    -6.999000000     3.467000000
H    -2.523000000    -7.909000000     3.526000000
H    -1.722000000    -6.963000000     2.656000000
O     0.331000000    -4.171000000     4.571000000
H     0.600000000    -3.260000000     4.458000000
H     0.394000000    -4.550000000     3.694000000
O     4.799000000    -4.717000000    -0.272000000
H     3.950000000    -4.556000000     0.140000000
H     5.343000000    -3.979000000     0.004000000
O     0.512000000    -8.030000000    -1.339000000
H    -0.122000000    -7.518000000    -1.842000000
H     0.335000000    -8.938000000    -1.585000000
O    -2.167000000    -5.755000000     5.820000000
H    -1.404000000    -5.199000000     5.665000000
H    -2.318000000    -6.194000000     4.982000000
O     7.291000000    -6.719000000     1.084000000
H     6.757000000    -7.178000000     0.436000000
H     6.660000000    -6.232000000     1.614000000
O     5.132000000    -4.737000000     5.546000000
H     4.613000000    -5.028000000     4.797000000
H     5.715000000    -5.473000000     5.734000000
O     1.923000000    -9.292000000     2.422000000
H     1.998000000    -8.445000000     2.861000000
H     1.177000000    -9.191000000     1.831000000
O     4.626000000    -9.212000000     0.335000000
H     5.221000000    -9.477000000    -0.367000000
H     4.235000000    -8.396000000     0.022000000
O     5.751000000    -2.459000000     1.282000000
H     5.182000000    -1.783000000     1.648000000
H     6.635000000    -2.189000000     1.532000000
O     1.360000000    -6.985000000     5.780000000
H     1.601000000    -6.060000000     5.834000000
H     1.132000000    -7.120000000     4.860000000
O     4.302000000    -4.994000000     3.001000000
H     5.031000000    -4.430000000     2.745000000
H     3.559000000    -4.670000000     2.491000000
O     2.853000000    -7.162000000    -0.524000000
H     1.980000000    -7.375000000    -0.855000000
H     2.778000000    -6.260000000    -0.213000000
O     2.016000000    -6.843000000     3.263000000
H     2.946000000    -6.752000000     3.467000000
H     1.851000000    -6.179000000     2.594000000
O     3.080000000    -0.778000000     1.793000000
H     2.491000000    -1.075000000     1.100000000
H     2.523000000    -0.259000000     2.374000000
O     5.767000000    -5.928000000    -2.404000000
H     6.099000000    -6.782000000    -2.125000000
H     5.345000000    -5.569000000    -1.623000000
O    -0.390000000    -7.005000000     1.165000000
H     0.013000000    -7.348000000     0.368000000
H     0.215000000    -6.328000000     1.468000000
O     0.625000000    -3.719000000     7.510000000
H     1.532000000    -3.413000000     7.478000000
H     0.383000000    -3.845000000     6.592000000
O     0.123000000    -9.934000000     4.360000000
H    -0.303000000   -10.594000000     3.813000000
H     0.713000000    -9.473000000     3.764000000
