215
-1433.23600
C    -1.647000000     1.135000000     4.878000000
H    -2.655000000     1.081000000     4.474000000
C    -0.650000000     1.870000000     4.327000000
C     0.608000000     1.947000000     4.931000000
H     1.305000000     2.701000000     4.575000000
C    -0.902000000     2.688000000     3.091000000
O    -2.267000000     3.087000000     2.959000000
H    -0.576000000     2.087000000     2.230000000
O    -0.117000000     3.923000000     3.118000000
C     0.494000000     4.237000000     1.918000000
C     1.792000000     3.826000000     1.762000000
H     2.294000000     3.231000000     2.520000000
C     2.374000000     4.053000000     0.574000000
O     3.554000000     3.439000000     0.334000000
C     1.710000000     4.673000000    -0.493000000
C     2.214000000     4.748000000    -1.939000000
H     1.748000000     5.601000000    -2.437000000
C     1.948000000     3.479000000    -2.693000000
C     0.927000000     3.332000000    -3.618000000
H     0.227000000     4.158000000    -3.705000000
H     3.260000000     5.030000000    -2.074000000
C     0.359000000     5.090000000    -0.341000000
H    -0.103000000     5.497000000    -1.236000000
C    -0.238000000     4.901000000     0.857000000
C    -1.707000000     5.208000000     0.996000000
H    -1.914000000     5.998000000     0.271000000
H    -1.867000000     5.546000000     2.022000000
C    -2.586000000     3.951000000     0.767000000
C    -3.267000000     3.776000000    -0.461000000
H    -2.862000000     4.339000000    -1.298000000
C    -2.867000000     2.997000000     1.788000000
C    -3.713000000     1.911000000     1.489000000
H    -3.915000000     1.097000000     2.181000000
C    -4.268000000     1.742000000     0.259000000
O    -4.897000000     0.481000000     0.007000000
C    -4.129000000    -0.622000000    -0.572000000
C    -4.262000000    -1.933000000     0.143000000
C    -4.015000000    -3.119000000    -0.544000000
H    -3.803000000    -2.997000000    -1.603000000
C    -4.412000000    -2.048000000     1.554000000
H    -4.288000000    -1.150000000     2.153000000
O    -4.445000000    -0.665000000    -2.022000000
H    -3.054000000    -0.394000000    -0.530000000
C    -4.057000000     2.677000000    -0.735000000
C    -4.510000000     2.378000000    -2.212000000
H    -4.725000000     3.327000000    -2.707000000
H    -5.522000000     1.970000000    -2.171000000
C    -3.506000000     1.493000000    -2.942000000
C    -2.478000000     2.058000000    -3.669000000
H    -2.509000000     3.144000000    -3.665000000
C    -3.596000000     0.080000000    -2.885000000
C    -2.643000000    -0.738000000    -3.506000000
H    -2.664000000    -1.822000000    -3.420000000
C    -1.700000000    -0.060000000    -4.315000000
O    -0.826000000    -0.798000000    -5.042000000
C     0.434000000    -0.967000000    -4.421000000
C     0.829000000    -2.418000000    -4.288000000
C    -0.121000000    -3.411000000    -4.251000000
H    -1.154000000    -3.095000000    -4.372000000
C     2.157000000    -2.810000000    -4.003000000
H     3.006000000    -2.133000000    -3.952000000
O     1.465000000    -0.074000000    -4.991000000
H     0.281000000    -0.563000000    -3.409000000
C    -1.584000000     1.334000000    -4.372000000
C    -0.521000000     2.062000000    -5.195000000
H    -0.908000000     3.039000000    -5.492000000
H    -0.392000000     1.529000000    -6.140000000
C     0.744000000     2.172000000    -4.386000000
C     1.600000000     1.142000000    -4.296000000
C     2.638000000     1.252000000    -3.396000000
H     3.259000000     0.368000000    -3.278000000
C     2.901000000     2.364000000    -2.565000000
O     4.012000000     2.292000000    -1.712000000
C     3.696000000     2.131000000    -0.334000000
H     2.679000000     1.729000000    -0.214000000
C     4.548000000     1.190000000     0.382000000
C     4.913000000     1.344000000     1.754000000
H     4.502000000     2.206000000     2.273000000
C     5.124000000     0.064000000    -0.276000000
H     5.027000000     0.007000000    -1.357000000
C     5.858000000    -0.900000000     0.369000000
O     6.281000000    -2.080000000    -0.310000000
C     6.094000000    -0.765000000     1.701000000
H     6.644000000    -1.562000000     2.194000000
C     5.624000000     0.332000000     2.425000000
O     5.839000000     0.253000000     3.780000000
C     5.161000000     1.116000000     4.597000000
C     4.059000000     0.669000000     5.255000000
H     3.819000000    -0.385000000     5.142000000
C     5.591000000     2.466000000     4.606000000
H     6.438000000     2.853000000     4.045000000
C     4.816000000     3.395000000     5.346000000
H     5.062000000     4.452000000     5.304000000
C     3.711000000     2.983000000     6.020000000
H     3.000000000     3.665000000     6.479000000
C     3.370000000     1.604000000     5.963000000
O     2.241000000     1.169000000     6.601000000
C     0.941000000     1.151000000     6.023000000
C    -0.039000000     0.250000000     6.492000000
H     0.246000000    -0.274000000     7.401000000
C    -1.320000000     0.285000000     5.915000000
O    -2.325000000    -0.469000000     6.580000000
C    -3.473000000    -0.990000000     6.017000000
C    -3.370000000    -1.806000000     4.907000000
H    -2.464000000    -2.223000000     4.475000000
C    -4.674000000    -0.700000000     6.628000000
H    -4.795000000    -0.121000000     7.540000000
C    -5.843000000    -1.259000000     6.068000000
H    -6.758000000    -1.135000000     6.641000000
C    -5.822000000    -2.236000000     5.069000000
H    -6.706000000    -2.752000000     4.702000000
C    -4.554000000    -2.387000000     4.450000000
O    -4.474000000    -3.369000000     3.587000000
C    -4.471000000    -3.259000000     2.214000000
C    -4.315000000    -4.415000000     1.473000000
H    -4.356000000    -5.327000000     2.063000000
C    -4.054000000    -4.371000000     0.084000000
O    -3.700000000    -5.526000000    -0.564000000
C    -3.527000000    -5.545000000    -1.940000000
C    -2.185000000    -5.602000000    -2.446000000
H    -1.307000000    -5.550000000    -1.808000000
C    -4.591000000    -5.520000000    -2.761000000
H    -5.548000000    -5.472000000    -2.249000000
C    -4.421000000    -5.456000000    -4.146000000
H    -5.289000000    -5.392000000    -4.797000000
C    -3.122000000    -5.510000000    -4.731000000
H    -3.007000000    -5.621000000    -5.806000000
C    -2.053000000    -5.663000000    -3.864000000
O    -0.759000000    -5.789000000    -4.348000000
C     0.157000000    -4.740000000    -4.129000000
C     1.417000000    -5.084000000    -3.789000000
H     1.724000000    -6.109000000    -3.598000000
C     2.435000000    -4.131000000    -3.726000000
O     3.780000000    -4.571000000    -3.526000000
C     4.763000000    -3.664000000    -3.240000000
C     5.586000000    -3.116000000    -4.231000000
H     5.456000000    -3.343000000    -5.286000000
C     6.542000000    -2.213000000    -3.898000000
H     7.184000000    -1.826000000    -4.686000000
C     6.758000000    -1.943000000    -2.553000000
H     7.653000000    -1.376000000    -2.309000000
C     5.990000000    -2.486000000    -1.532000000
C     4.966000000    -3.299000000    -1.860000000
H     4.301000000    -3.751000000    -1.128000000
C     0.592000000    -2.755000000    -0.563000000
H     0.329000000    -3.714000000    -1.002000000
C     0.085000000    -1.539000000    -0.932000000
H    -0.594000000    -1.490000000    -1.780000000
C     0.501000000    -0.386000000    -0.257000000
H     0.052000000     0.550000000    -0.497000000
C     1.466000000    -0.486000000     0.720000000
H     1.779000000     0.364000000     1.321000000
C     2.036000000    -1.770000000     1.081000000
H     2.847000000    -1.807000000     1.804000000
C     1.645000000    -2.907000000     0.428000000
C     2.237000000    -4.268000000     0.714000000
O     3.047000000    -4.468000000     1.535000000
O     1.629000000    -5.273000000     0.239000000
O     7.316000000    -7.484000000     0.022000000
H     6.946000000    -6.980000000    -0.702000000
H     8.092000000    -6.990000000     0.286000000
O    -0.425000000    -5.763000000     1.623000000
H     0.422000000    -5.824000000     1.182000000
H    -0.433000000    -4.885000000     2.004000000
O     5.595000000    -4.141000000     2.203000000
H     5.827000000    -4.894000000     1.660000000
H     4.693000000    -3.935000000     1.955000000
O     3.987000000   -10.244000000     0.439000000
H     3.740000000    -9.355000000     0.694000000
H     4.701000000   -10.124000000    -0.187000000
O    -2.982000000    -8.011000000     0.447000000
H    -2.813000000    -8.082000000     1.387000000
H    -3.086000000    -7.072000000     0.293000000
O     5.600000000    -7.200000000     2.091000000
H     5.975000000    -7.020000000     2.953000000
H     6.354000000    -7.220000000     1.501000000
O    -0.134000000    -9.479000000     0.656000000
H    -0.646000000    -9.027000000    -0.015000000
H     0.014000000   -10.354000000     0.296000000
O     2.680000000    -5.827000000     3.800000000
H     3.338000000    -5.777000000     4.494000000
H     3.038000000    -5.292000000     3.091000000
O     5.713000000    -6.938000000    -2.389000000
H     4.998000000    -6.644000000    -1.825000000
H     5.278000000    -7.393000000    -3.110000000
O     0.195000000    -6.893000000     4.208000000
H     1.047000000    -6.458000000     4.166000000
H    -0.251000000    -6.624000000     3.405000000
O     1.060000000    -7.422000000    -1.322000000
H     1.890000000    -7.758000000    -0.982000000
H     0.963000000    -6.564000000    -0.910000000
O     4.133000000    -3.067000000     4.517000000
H     4.585000000    -2.828000000     5.326000000
H     4.832000000    -3.343000000     3.924000000
O     3.456000000    -7.313000000     0.047000000
H     2.861000000    -6.564000000     0.023000000
H     4.078000000    -7.102000000     0.744000000
O     8.186000000    -4.179000000     1.840000000
H     7.254000000    -4.000000000     1.965000000
H     8.545000000    -4.210000000     2.727000000
O    -0.801000000    -4.404000000     5.639000000
H    -0.900000000    -4.921000000     4.839000000
H    -0.243000000    -3.670000000     5.383000000
O    -0.505000000    -3.260000000     2.693000000
H    -0.379000000    -2.626000000     1.987000000
H     0.146000000    -3.016000000     3.352000000
O     2.610000000    -8.415000000     3.351000000
H     1.879000000    -8.316000000     2.740000000
H     2.952000000    -7.529000000     3.460000000
O     1.200000000    -2.764000000     4.666000000
H     1.455000000    -2.504000000     5.551000000
H     2.012000000    -3.075000000     4.264000000
O    -0.318000000    -8.600000000    -3.346000000
H    -0.209000000    -8.097000000    -4.153000000
H     0.024000000    -8.029000000    -2.659000000
