215
-1459.92770
C    -0.815000000     0.991000000     4.879000000
H    -1.820000000     0.888000000     4.479000000
C     0.062000000     1.910000000     4.283000000
C     1.417000000     1.891000000     4.716000000
H     2.232000000     2.466000000     4.283000000
C    -0.402000000     2.733000000     3.154000000
O    -1.670000000     3.364000000     3.238000000
H    -0.406000000     2.127000000     2.236000000
O     0.558000000     3.749000000     2.882000000
C     1.074000000     4.015000000     1.620000000
C     2.354000000     3.626000000     1.281000000
H     3.017000000     3.115000000     1.975000000
C     2.820000000     3.816000000     0.010000000
O     3.927000000     3.091000000    -0.338000000
C     2.004000000     4.473000000    -1.009000000
C     2.462000000     4.543000000    -2.446000000
H     1.972000000     5.403000000    -2.907000000
C     2.063000000     3.276000000    -3.073000000
C     0.857000000     3.291000000    -3.774000000
H     0.266000000     4.203000000    -3.792000000
H     3.545000000     4.664000000    -2.517000000
C     0.789000000     4.950000000    -0.579000000
H     0.094000000     5.394000000    -1.286000000
C     0.325000000     4.757000000     0.713000000
C    -1.096000000     5.262000000     1.180000000
H    -1.370000000     6.109000000     0.548000000
H    -1.138000000     5.622000000     2.210000000
C    -2.162000000     4.184000000     1.029000000
C    -2.850000000     4.067000000    -0.155000000
H    -2.668000000     4.754000000    -0.977000000
C    -2.432000000     3.319000000     2.064000000
C    -3.407000000     2.382000000     1.932000000
H    -3.568000000     1.698000000     2.761000000
C    -4.024000000     2.184000000     0.789000000
O    -4.803000000     1.035000000     0.710000000
C    -4.277000000    -0.097000000     0.022000000
C    -4.513000000    -1.496000000     0.673000000
C    -4.475000000    -2.615000000    -0.118000000
H    -4.256000000    -2.563000000    -1.182000000
C    -4.554000000    -1.611000000     2.079000000
H    -4.531000000    -0.656000000     2.597000000
O    -4.692000000    -0.139000000    -1.291000000
H    -3.179000000    -0.049000000     0.061000000
C    -3.832000000     3.059000000    -0.267000000
C    -4.550000000     2.839000000    -1.581000000
H    -4.678000000     3.786000000    -2.109000000
H    -5.549000000     2.520000000    -1.275000000
C    -3.770000000     1.828000000    -2.400000000
C    -2.750000000     2.312000000    -3.211000000
H    -2.574000000     3.385000000    -3.215000000
C    -3.881000000     0.440000000    -2.291000000
C    -3.105000000    -0.416000000    -3.068000000
H    -3.282000000    -1.489000000    -3.047000000
C    -2.178000000     0.080000000    -3.976000000
O    -1.414000000    -0.815000000    -4.658000000
C    -0.102000000    -1.081000000    -4.169000000
C     0.114000000    -2.603000000    -4.223000000
C    -0.883000000    -3.591000000    -4.262000000
H    -1.874000000    -3.161000000    -4.380000000
C     1.448000000    -3.027000000    -4.043000000
H     2.207000000    -2.278000000    -3.832000000
O     0.933000000    -0.382000000    -4.928000000
H    -0.160000000    -0.598000000    -3.183000000
C    -1.998000000     1.431000000    -4.096000000
C    -0.958000000     1.922000000    -5.171000000
H    -1.336000000     2.853000000    -5.599000000
H    -0.881000000     1.208000000    -5.992000000
C     0.452000000     2.089000000    -4.471000000
C     1.247000000     0.909000000    -4.452000000
C     2.406000000     0.974000000    -3.710000000
H     3.074000000     0.125000000    -3.585000000
C     2.842000000     2.118000000    -3.035000000
O     3.989000000     2.013000000    -2.354000000
C     3.753000000     1.786000000    -0.961000000
H     2.695000000     1.489000000    -0.905000000
C     4.613000000     0.710000000    -0.274000000
C     4.837000000     0.776000000     1.119000000
H     4.501000000     1.652000000     1.668000000
C     4.948000000    -0.464000000    -0.935000000
H     4.651000000    -0.670000000    -1.961000000
C     5.600000000    -1.540000000    -0.268000000
O     5.904000000    -2.786000000    -0.821000000
C     5.989000000    -1.344000000     1.079000000
H     6.425000000    -2.190000000     1.603000000
C     5.616000000    -0.164000000     1.733000000
O     6.082000000    -0.004000000     3.017000000
C     5.648000000     0.861000000     3.963000000
C     4.441000000     0.712000000     4.658000000
H     3.744000000    -0.067000000     4.360000000
C     6.525000000     1.836000000     4.462000000
H     7.416000000     2.138000000     3.917000000
C     6.292000000     2.550000000     5.575000000
H     6.953000000     3.327000000     5.952000000
C     5.092000000     2.329000000     6.223000000
H     4.945000000     2.736000000     7.220000000
C     4.195000000     1.452000000     5.771000000
O     3.036000000     1.190000000     6.431000000
C     1.805000000     1.128000000     5.845000000
C     0.866000000     0.290000000     6.379000000
H     1.208000000    -0.284000000     7.237000000
C    -0.436000000     0.156000000     5.910000000
O    -1.117000000    -0.915000000     6.402000000
C    -2.487000000    -0.984000000     6.102000000
C    -2.957000000    -1.760000000     5.060000000
H    -2.304000000    -2.357000000     4.429000000
C    -3.402000000    -0.333000000     6.939000000
H    -3.101000000     0.240000000     7.812000000
C    -4.786000000    -0.535000000     6.768000000
H    -5.522000000    -0.178000000     7.484000000
C    -5.246000000    -1.199000000     5.629000000
H    -6.308000000    -1.250000000     5.401000000
C    -4.357000000    -1.873000000     4.867000000
O    -4.890000000    -2.867000000     4.069000000
C    -4.735000000    -2.872000000     2.656000000
C    -4.904000000    -3.998000000     1.820000000
H    -5.110000000    -5.006000000     2.171000000
C    -4.604000000    -3.857000000     0.451000000
O    -4.676000000    -5.008000000    -0.341000000
C    -4.418000000    -5.016000000    -1.688000000
C    -3.131000000    -5.381000000    -2.174000000
H    -2.308000000    -5.645000000    -1.515000000
C    -5.447000000    -4.774000000    -2.591000000
H    -6.464000000    -4.665000000    -2.223000000
C    -5.192000000    -4.737000000    -3.953000000
H    -6.041000000    -4.554000000    -4.607000000
C    -3.907000000    -5.025000000    -4.453000000
H    -3.804000000    -4.963000000    -5.534000000
C    -2.923000000    -5.403000000    -3.563000000
O    -1.672000000    -5.875000000    -3.927000000
C    -0.607000000    -4.957000000    -4.177000000
C     0.700000000    -5.332000000    -4.045000000
H     0.899000000    -6.400000000    -4.011000000
C     1.726000000    -4.414000000    -4.048000000
O     2.983000000    -4.940000000    -3.876000000
C     3.991000000    -4.160000000    -3.574000000
C     4.494000000    -3.476000000    -4.684000000
H     3.917000000    -3.557000000    -5.602000000
C     5.609000000    -2.614000000    -4.484000000
H     5.926000000    -1.957000000    -5.290000000
C     6.182000000    -2.459000000    -3.205000000
H     6.965000000    -1.713000000    -3.094000000
C     5.561000000    -3.097000000    -2.078000000
C     4.483000000    -3.974000000    -2.292000000
H     3.962000000    -4.389000000    -1.434000000
C    -0.527000000    -3.304000000     0.075000000
H    -1.442000000    -3.890000000     0.077000000
C    -0.657000000    -1.945000000     0.115000000
H    -1.654000000    -1.517000000     0.050000000
C     0.414000000    -1.109000000     0.221000000
H     0.184000000    -0.034000000     0.376000000
C     1.724000000    -1.643000000     0.250000000
H     2.576000000    -1.003000000     0.466000000
C     1.898000000    -2.977000000     0.129000000
H     2.880000000    -3.425000000     0.257000000
C     0.785000000    -3.835000000     0.064000000
C     1.059000000    -5.317000000     0.015000000
O     2.119000000    -5.713000000     0.435000000
O     0.194000000    -6.082000000    -0.378000000
O     1.654000000   -11.166000000     1.861000000
H     1.297000000   -10.337000000     1.541000000
H     2.598000000   -11.018000000     1.906000000
O    -2.175000000    -6.378000000     1.193000000
H    -1.436000000    -6.153000000     0.629000000
H    -2.043000000    -7.302000000     1.404000000
O    -1.297000000    -9.262000000     2.579000000
H    -0.342000000    -9.194000000     2.593000000
H    -1.503000000    -9.565000000     1.695000000
O     4.604000000    -5.157000000     1.859000000
H     5.242000000    -5.710000000     1.410000000
H     3.867000000    -5.098000000     1.250000000
O     4.251000000   -10.546000000     1.141000000
H     4.195000000    -9.697000000     1.580000000
H     5.034000000   -10.482000000     0.594000000
O    -2.212000000    -9.460000000     0.057000000
H    -2.267000000   -10.401000000    -0.114000000
H    -2.023000000    -9.072000000    -0.797000000
O    -0.603000000   -10.940000000    -1.951000000
H    -0.026000000   -11.182000000    -2.676000000
H    -0.256000000   -10.104000000    -1.639000000
O     6.468000000    -6.472000000     0.644000000
H     7.185000000    -5.839000000     0.679000000
H     6.509000000    -6.832000000    -0.242000000
O     1.044000000    -8.493000000     1.121000000
H     0.763000000    -7.651000000     0.762000000
H     1.980000000    -8.381000000     1.287000000
O     4.100000000    -8.022000000     1.930000000
H     3.602000000    -7.277000000     2.268000000
H     4.972000000    -7.667000000     1.756000000
O    -0.350000000    -6.542000000     4.449000000
H    -1.077000000    -7.149000000     4.585000000
H     0.235000000    -6.699000000     5.190000000
O     0.338000000    -8.406000000    -1.789000000
H     1.243000000    -8.371000000    -1.480000000
H    -0.075000000    -7.631000000    -1.410000000
O     6.090000000    -5.241000000     4.076000000
H     5.857000000    -4.408000000     4.485000000
H     5.513000000    -5.305000000     3.315000000
O     3.209000000    -7.269000000    -1.668000000
H     3.053000000    -6.765000000    -0.869000000
H     3.837000000    -6.743000000    -2.163000000
O     0.948000000    -2.962000000     3.019000000
H     0.968000000    -2.639000000     2.118000000
H     0.227000000    -3.592000000     3.032000000
O     3.816000000    -2.697000000     3.013000000
H     3.863000000    -3.653000000     3.027000000
H     2.960000000    -2.494000000     3.390000000
O     2.278000000    -6.118000000     3.091000000
H     1.504000000    -5.751000000     3.518000000
H     2.083000000    -6.066000000     2.155000000
O    -1.321000000    -4.354000000     3.121000000
H    -1.896000000    -4.688000000     2.433000000
H    -1.036000000    -5.135000000     3.595000000
O     2.332000000    -8.450000000    -4.454000000
H     2.630000000    -7.741000000    -5.023000000
H     2.490000000    -8.129000000    -3.566000000
