215
-1431.20997
C    -0.886000000     2.767000000     4.745000000
H    -1.888000000     3.137000000     4.541000000
C     0.102000000     2.852000000     3.839000000
C     1.384000000     2.349000000     4.125000000
H     2.163000000     2.464000000     3.375000000
C    -0.190000000     3.503000000     2.451000000
O    -1.425000000     4.265000000     2.483000000
H    -0.245000000     2.620000000     1.798000000
O     0.873000000     4.417000000     2.033000000
C     1.386000000     4.321000000     0.762000000
C     2.556000000     3.632000000     0.512000000
H     3.003000000     3.125000000     1.363000000
C     2.974000000     3.403000000    -0.835000000
O     4.121000000     2.641000000    -1.069000000
C     2.163000000     3.855000000    -1.928000000
C     2.559000000     3.514000000    -3.376000000
H     2.092000000     4.199000000    -4.087000000
C     2.174000000     2.109000000    -3.783000000
C     0.974000000     1.984000000    -4.481000000
H     0.389000000     2.877000000    -4.687000000
H     3.631000000     3.596000000    -3.567000000
C     1.139000000     4.756000000    -1.667000000
H     0.550000000     5.125000000    -2.502000000
C     0.654000000     4.845000000    -0.333000000
C    -0.644000000     5.619000000     0.003000000
H    -0.758000000     6.319000000    -0.827000000
H    -0.521000000     6.176000000     0.934000000
C    -1.747000000     4.512000000     0.077000000
C    -2.537000000     4.217000000    -1.041000000
H    -2.445000000     4.845000000    -1.923000000
C    -2.129000000     3.968000000     1.342000000
C    -3.095000000     2.944000000     1.373000000
H    -3.261000000     2.429000000     2.316000000
C    -3.668000000     2.451000000     0.227000000
O    -4.575000000     1.434000000     0.279000000
C    -4.280000000     0.133000000    -0.233000000
C    -4.586000000    -0.898000000     0.815000000
C    -4.768000000    -2.245000000     0.339000000
H    -4.737000000    -2.451000000    -0.728000000
C    -4.483000000    -0.606000000     2.181000000
H    -4.186000000     0.378000000     2.535000000
O    -4.939000000    -0.061000000    -1.541000000
H    -3.182000000     0.093000000    -0.283000000
C    -3.472000000     3.128000000    -1.006000000
C    -4.249000000     2.731000000    -2.283000000
H    -4.321000000     3.576000000    -2.971000000
H    -5.315000000     2.602000000    -2.084000000
C    -3.653000000     1.436000000    -2.958000000
C    -2.623000000     1.616000000    -3.914000000
H    -2.200000000     2.596000000    -4.115000000
C    -4.143000000     0.115000000    -2.654000000
C    -3.640000000    -0.982000000    -3.321000000
H    -3.926000000    -1.973000000    -2.978000000
C    -2.544000000    -0.773000000    -4.160000000
O    -1.797000000    -1.930000000    -4.470000000
C    -0.449000000    -2.019000000    -3.887000000
C    -0.188000000    -3.469000000    -3.316000000
C    -1.275000000    -4.395000000    -3.121000000
H    -2.296000000    -4.114000000    -3.366000000
C     1.093000000    -3.812000000    -3.012000000
H     1.915000000    -3.155000000    -3.286000000
O     0.658000000    -1.654000000    -4.715000000
H    -0.451000000    -1.369000000    -2.999000000
C    -2.005000000     0.477000000    -4.526000000
C    -0.918000000     0.697000000    -5.519000000
H    -1.117000000     1.619000000    -6.070000000
H    -0.932000000    -0.150000000    -6.208000000
C     0.492000000     0.735000000    -4.846000000
C     1.243000000    -0.397000000    -4.545000000
C     2.393000000    -0.255000000    -3.796000000
H     2.859000000    -1.193000000    -3.504000000
C     2.912000000     0.949000000    -3.411000000
O     4.086000000     0.921000000    -2.691000000
C     3.998000000     1.221000000    -1.293000000
H     2.994000000     0.921000000    -0.960000000
C     4.916000000     0.335000000    -0.453000000
C     5.391000000     0.838000000     0.769000000
H     4.998000000     1.778000000     1.150000000
C     5.243000000    -0.931000000    -0.838000000
H     4.848000000    -1.310000000    -1.777000000
C     6.074000000    -1.714000000     0.016000000
O     6.420000000    -3.021000000    -0.264000000
C     6.666000000    -1.159000000     1.160000000
H     7.350000000    -1.751000000     1.763000000
C     6.288000000     0.122000000     1.593000000
O     6.773000000     0.595000000     2.720000000
C     5.966000000     1.402000000     3.587000000
C     4.849000000     1.046000000     4.298000000
H     4.446000000     0.039000000     4.221000000
C     6.427000000     2.726000000     3.649000000
H     7.170000000     3.139000000     2.971000000
C     5.741000000     3.647000000     4.415000000
H     5.854000000     4.725000000     4.341000000
C     4.608000000     3.267000000     5.119000000
H     3.986000000     3.927000000     5.718000000
C     4.184000000     1.922000000     5.141000000
O     2.982000000     1.532000000     5.740000000
C     1.705000000     1.874000000     5.394000000
C     0.661000000     1.670000000     6.282000000
H     0.816000000     1.144000000     7.221000000
C    -0.632000000     2.110000000     5.985000000
O    -1.680000000     1.914000000     6.786000000
C    -2.881000000     1.415000000     6.321000000
C    -2.878000000     0.266000000     5.569000000
H    -1.958000000    -0.275000000     5.364000000
C    -4.108000000     2.090000000     6.569000000
H    -4.004000000     2.987000000     7.174000000
C    -5.305000000     1.584000000     6.059000000
H    -6.215000000     2.119000000     6.318000000
C    -5.307000000     0.434000000     5.321000000
H    -6.214000000    -0.103000000     5.054000000
C    -4.065000000    -0.227000000     5.048000000
O    -4.089000000    -1.413000000     4.423000000
C    -4.489000000    -1.668000000     3.093000000
C    -4.707000000    -2.962000000     2.632000000
H    -4.752000000    -3.770000000     3.359000000
C    -4.872000000    -3.255000000     1.275000000
O    -4.986000000    -4.577000000     0.904000000
C    -4.765000000    -5.073000000    -0.331000000
C    -3.454000000    -5.364000000    -0.806000000
H    -2.679000000    -5.031000000    -0.120000000
C    -5.859000000    -5.518000000    -1.053000000
H    -6.887000000    -5.469000000    -0.704000000
C    -5.707000000    -6.374000000    -2.169000000
H    -6.600000000    -6.844000000    -2.574000000
C    -4.442000000    -6.717000000    -2.573000000
H    -4.386000000    -7.367000000    -3.443000000
C    -3.314000000    -6.111000000    -1.951000000
O    -2.085000000    -6.463000000    -2.408000000
C    -1.022000000    -5.572000000    -2.488000000
C     0.292000000    -5.933000000    -2.184000000
H     0.489000000    -6.908000000    -1.746000000
C     1.360000000    -5.053000000    -2.450000000
O     2.575000000    -5.425000000    -2.083000000
C     3.810000000    -4.779000000    -2.230000000
C     4.471000000    -4.839000000    -3.461000000
H     3.950000000    -5.134000000    -4.368000000
C     5.806000000    -4.333000000    -3.529000000
H     6.288000000    -4.304000000    -4.503000000
C     6.469000000    -3.826000000    -2.444000000
H     7.478000000    -3.425000000    -2.493000000
C     5.780000000    -3.680000000    -1.249000000
C     4.445000000    -4.202000000    -1.160000000
H     3.911000000    -4.115000000    -0.217000000
C     0.036000000    -2.540000000     0.615000000
H    -0.518000000    -3.469000000     0.503000000
C    -0.474000000    -1.420000000    -0.064000000
H    -1.290000000    -1.585000000    -0.763000000
C     0.069000000    -0.169000000     0.166000000
H    -0.421000000     0.646000000    -0.384000000
C     1.241000000    -0.030000000     0.929000000
H     1.774000000     0.917000000     0.899000000
C     1.818000000    -1.098000000     1.534000000
H     2.672000000    -1.078000000     2.205000000
C     1.186000000    -2.399000000     1.397000000
C     1.764000000    -3.600000000     2.084000000
O     2.777000000    -3.526000000     2.676000000
O     1.096000000    -4.624000000     2.133000000
O     5.683000000    -2.069000000     5.697000000
H     5.543000000    -1.469000000     6.430000000
H     5.207000000    -2.862000000     5.942000000
O     1.425000000    -5.102000000     5.519000000
H     0.533000000    -5.188000000     5.184000000
H     1.901000000    -4.652000000     4.821000000
O     2.018000000    -9.652000000     0.384000000
H     1.553000000    -9.413000000    -0.418000000
H     1.546000000    -9.197000000     1.080000000
O     1.046000000    -7.995000000     2.152000000
H     1.870000000    -7.509000000     2.193000000
H     0.368000000    -7.320000000     2.198000000
O     5.140000000    -4.717000000     2.802000000
H     4.400000000    -4.133000000     2.632000000
H     5.720000000    -4.209000000     3.369000000
O    -3.487000000    -6.985000000     3.645000000
H    -4.205000000    -6.657000000     4.185000000
H    -2.703000000    -6.581000000     4.017000000
O    -1.443000000    -5.193000000     4.676000000
H    -1.546000000    -4.339000000     4.256000000
H    -2.043000000    -5.167000000     5.421000000
O     5.983000000    -6.815000000     0.803000000
H     5.450000000    -6.428000000     1.497000000
H     6.653000000    -7.318000000     1.267000000
O     4.275000000    -7.547000000    -1.088000000
H     4.716000000    -7.179000000    -0.322000000
H     3.529000000    -6.966000000    -1.237000000
O     0.739000000    -4.610000000     8.455000000
H     0.970000000    -4.376000000     7.556000000
H    -0.080000000    -4.144000000     8.621000000
O     2.086000000    -2.254000000     4.911000000
H     2.357000000    -2.704000000     4.111000000
H     2.844000000    -2.321000000     5.492000000
O     7.335000000    -3.353000000     3.836000000
H     8.185000000    -3.459000000     4.263000000
H     6.783000000    -2.941000000     4.500000000
O     3.914000000    -7.365000000     6.234000000
H     3.115000000    -7.117000000     5.768000000
H     3.884000000    -6.861000000     7.047000000
O     0.591000000    -1.481000000     7.452000000
H    -0.116000000    -2.122000000     7.520000000
H     0.803000000    -1.456000000     6.519000000
O    -2.003000000    -9.227000000     0.248000000
H    -1.474000000    -8.447000000     0.417000000
H    -1.930000000    -9.366000000    -0.696000000
O    -1.177000000    -6.087000000     1.527000000
H    -1.938000000    -5.692000000     1.952000000
H    -0.438000000    -5.550000000     1.811000000
O     4.184000000    -4.019000000     6.803000000
H     3.438000000    -4.476000000     7.194000000
H     4.936000000    -4.579000000     6.998000000
O     3.093000000    -6.254000000     1.965000000
H     2.307000000    -5.719000000     2.081000000
H     3.778000000    -5.777000000     2.433000000
O    -1.606000000    -2.828000000     3.320000000
H    -0.803000000    -2.815000000     2.800000000
H    -2.298000000    -2.597000000     2.700000000
