215
-1427.59535
C     1.174000000     2.568000000     4.280000000
H     0.104000000     2.572000000     4.089000000
C     1.933000000     3.073000000     3.224000000
C     3.307000000     2.923000000     3.388000000
H     3.940000000     3.297000000     2.588000000
C     1.349000000     3.657000000     1.944000000
O     0.155000000     4.305000000     2.215000000
H     1.037000000     2.752000000     1.404000000
O     2.228000000     4.455000000     1.094000000
C     2.250000000     4.248000000    -0.237000000
C     3.156000000     3.235000000    -0.667000000
H     3.840000000     2.876000000     0.098000000
C     3.150000000     2.884000000    -1.999000000
O     4.025000000     1.968000000    -2.377000000
C     2.238000000     3.400000000    -2.978000000
C     2.221000000     2.891000000    -4.407000000
H     1.822000000     3.637000000    -5.097000000
C     1.344000000     1.581000000    -4.446000000
C     0.001000000     1.684000000    -4.779000000
H    -0.418000000     2.658000000    -5.017000000
H     3.248000000     2.742000000    -4.747000000
C     1.325000000     4.369000000    -2.541000000
H     0.540000000     4.774000000    -3.174000000
C     1.291000000     4.718000000    -1.142000000
C     0.162000000     5.617000000    -0.641000000
H    -0.247000000     6.276000000    -1.411000000
H     0.516000000     6.351000000     0.086000000
C    -0.957000000     4.739000000    -0.008000000
C    -2.135000000     4.567000000    -0.772000000
H    -2.188000000     4.936000000    -1.793000000
C    -0.917000000     4.305000000     1.353000000
C    -1.962000000     3.524000000     1.793000000
H    -2.073000000     3.081000000     2.779000000
C    -3.033000000     3.203000000     0.997000000
O    -3.902000000     2.291000000     1.494000000
C    -3.941000000     0.974000000     1.028000000
C    -3.998000000    -0.106000000     2.173000000
C    -4.385000000    -1.450000000     1.891000000
H    -4.781000000    -1.662000000     0.901000000
C    -3.695000000     0.197000000     3.491000000
H    -3.303000000     1.207000000     3.582000000
O    -4.918000000     0.713000000    -0.043000000
H    -2.925000000     0.836000000     0.630000000
C    -3.159000000     3.710000000    -0.298000000
C    -4.328000000     3.382000000    -1.254000000
H    -4.636000000     4.086000000    -2.030000000
H    -5.193000000     3.339000000    -0.589000000
C    -4.178000000     1.985000000    -1.921000000
C    -3.438000000     1.958000000    -3.172000000
H    -3.160000000     2.890000000    -3.657000000
C    -4.498000000     0.790000000    -1.310000000
C    -4.144000000    -0.409000000    -1.961000000
H    -4.286000000    -1.363000000    -1.459000000
C    -3.500000000    -0.394000000    -3.229000000
O    -3.150000000    -1.582000000    -3.737000000
C    -1.863000000    -2.076000000    -3.355000000
C    -1.841000000    -3.495000000    -2.813000000
C    -2.992000000    -4.052000000    -2.277000000
H    -3.921000000    -3.494000000    -2.192000000
C    -0.669000000    -4.190000000    -2.885000000
H     0.236000000    -3.694000000    -3.225000000
O    -1.022000000    -1.884000000    -4.515000000
H    -1.445000000    -1.438000000    -2.563000000
C    -3.068000000     0.789000000    -3.806000000
C    -2.213000000     0.822000000    -5.132000000
H    -2.403000000     1.814000000    -5.549000000
H    -2.471000000     0.106000000    -5.915000000
C    -0.784000000     0.544000000    -4.859000000
C    -0.248000000    -0.734000000    -4.577000000
C     1.110000000    -0.830000000    -4.232000000
H     1.552000000    -1.799000000    -4.014000000
C     1.909000000     0.337000000    -4.169000000
O     3.186000000     0.181000000    -3.768000000
C     3.473000000     0.554000000    -2.456000000
H     2.505000000     0.544000000    -1.932000000
C     4.294000000    -0.522000000    -1.657000000
C     5.275000000    -0.172000000    -0.732000000
H     5.515000000     0.864000000    -0.507000000
C     4.052000000    -1.900000000    -1.797000000
H     3.225000000    -2.181000000    -2.444000000
C     4.742000000    -2.874000000    -1.037000000
O     4.485000000    -4.214000000    -1.100000000
C     5.631000000    -2.467000000    -0.071000000
H     6.128000000    -3.257000000     0.486000000
C     5.962000000    -1.086000000     0.067000000
O     6.812000000    -0.722000000     1.048000000
C     6.817000000     0.526000000     1.613000000
C     5.781000000     0.853000000     2.500000000
H     4.957000000     0.171000000     2.691000000
C     7.869000000     1.431000000     1.372000000
H     8.482000000     1.284000000     0.486000000
C     7.989000000     2.541000000     2.214000000
H     8.805000000     3.258000000     2.159000000
C     7.224000000     2.592000000     3.337000000
H     7.510000000     3.296000000     4.113000000
C     6.045000000     1.838000000     3.465000000
O     5.246000000     2.029000000     4.588000000
C     3.903000000     2.214000000     4.505000000
C     3.105000000     1.771000000     5.464000000
H     3.571000000     1.278000000     6.313000000
C     1.719000000     1.894000000     5.371000000
O     0.982000000     1.440000000     6.443000000
C    -0.428000000     1.490000000     6.614000000
C    -1.223000000     0.439000000     6.103000000
H    -0.774000000    -0.462000000     5.693000000
C    -1.081000000     2.647000000     7.199000000
H    -0.424000000     3.457000000     7.506000000
C    -2.466000000     2.750000000     7.287000000
H    -2.935000000     3.645000000     7.688000000
C    -3.215000000     1.607000000     6.861000000
H    -4.276000000     1.479000000     7.057000000
C    -2.592000000     0.489000000     6.225000000
O    -3.392000000    -0.552000000     5.826000000
C    -3.675000000    -0.768000000     4.482000000
C    -4.058000000    -2.040000000     4.119000000
H    -4.002000000    -2.834000000     4.859000000
C    -4.389000000    -2.455000000     2.825000000
O    -4.730000000    -3.753000000     2.660000000
C    -5.272000000    -4.321000000     1.581000000
C    -4.483000000    -4.873000000     0.609000000
H    -3.412000000    -4.808000000     0.786000000
C    -6.711000000    -4.292000000     1.346000000
H    -7.415000000    -3.841000000     2.040000000
C    -7.276000000    -4.867000000     0.224000000
H    -8.361000000    -4.889000000     0.162000000
C    -6.394000000    -5.489000000    -0.764000000
H    -6.734000000    -5.963000000    -1.681000000
C    -4.998000000    -5.415000000    -0.551000000
O    -4.129000000    -5.924000000    -1.463000000
C    -2.974000000    -5.358000000    -1.880000000
C    -1.787000000    -6.140000000    -1.902000000
H    -1.726000000    -7.099000000    -1.394000000
C    -0.614000000    -5.493000000    -2.413000000
O     0.573000000    -6.304000000    -2.502000000
C     1.788000000    -5.762000000    -2.823000000
C     2.254000000    -5.870000000    -4.119000000
H     1.640000000    -6.360000000    -4.870000000
C     3.524000000    -5.405000000    -4.424000000
H     3.944000000    -5.589000000    -5.409000000
C     4.304000000    -4.778000000    -3.417000000
H     5.294000000    -4.440000000    -3.711000000
C     3.769000000    -4.702000000    -2.119000000
C     2.543000000    -5.209000000    -1.816000000
H     2.184000000    -5.128000000    -0.793000000
C    -0.827000000    -2.777000000     0.455000000
H    -1.509000000    -3.618000000     0.363000000
C    -1.045000000    -1.572000000    -0.235000000
H    -2.030000000    -1.354000000    -0.639000000
C    -0.121000000    -0.577000000    -0.227000000
H    -0.347000000     0.336000000    -0.780000000
C     1.120000000    -0.790000000     0.420000000
H     1.841000000     0.022000000     0.356000000
C     1.346000000    -2.006000000     1.113000000
H     2.310000000    -2.047000000     1.615000000
C     0.420000000    -3.030000000     1.062000000
C     0.771000000    -4.285000000     1.773000000
O     1.828000000    -4.438000000     2.304000000
O    -0.053000000    -5.193000000     1.714000000
O    -2.318000000    -6.326000000     5.409000000
H    -2.008000000    -6.214000000     4.510000000
H    -1.551000000    -6.636000000     5.890000000
O     7.049000000    -5.812000000     1.079000000
H     7.861000000    -6.148000000     1.458000000
H     6.491000000    -5.626000000     1.834000000
O     3.308000000    -8.532000000    -0.113000000
H     2.366000000    -8.628000000     0.033000000
H     3.590000000    -7.901000000     0.549000000
O    -1.829000000    -6.677000000     2.644000000
H    -1.097000000    -6.114000000     2.393000000
H    -2.490000000    -6.526000000     1.969000000
O     2.643000000    -9.307000000     4.253000000
H     1.746000000    -9.057000000     4.032000000
H     3.189000000    -8.792000000     3.660000000
O    -0.051000000    -8.036000000     4.895000000
H    -0.650000000    -7.932000000     4.156000000
H     0.498000000    -7.253000000     4.872000000
O     3.855000000    -6.017000000     1.436000000
H     4.273000000    -5.274000000     1.001000000
H     3.018000000    -5.673000000     1.747000000
O     6.049000000    -7.295000000    -1.070000000
H     5.927000000    -6.729000000    -0.308000000
H     5.358000000    -7.953000000    -0.992000000
O     1.134000000    -5.813000000     4.689000000
H     1.172000000    -5.281000000     3.894000000
H     1.529000000    -5.263000000     5.365000000
O     0.508000000    -7.982000000     0.991000000
H    -0.403000000    -8.196000000     0.788000000
H     0.503000000    -7.038000000     1.149000000
O     6.280000000    -3.414000000     3.443000000
H     6.365000000    -4.260000000     3.884000000
H     5.414000000    -3.097000000     3.698000000
O    -0.329000000    -6.788000000     7.351000000
H    -0.025000000    -7.209000000     6.547000000
H     0.411000000    -6.859000000     7.953000000
O    -1.929000000    -9.906000000     0.694000000
H    -2.523000000   -10.577000000     1.029000000
H    -2.422000000    -9.089000000     0.772000000
O     3.613000000    -2.948000000     3.684000000
H     3.219000000    -3.416000000     2.948000000
H     2.940000000    -2.326000000     3.961000000
O     4.638000000    -8.401000000     2.674000000
H     4.602000000    -7.582000000     2.179000000
H     5.516000000    -8.744000000     2.506000000
O     1.641000000    -1.093000000     4.013000000
H     0.715000000    -1.305000000     3.895000000
H     1.644000000    -0.178000000     4.293000000
O    -3.797000000    -7.947000000     0.887000000
H    -4.255000000    -7.830000000     1.719000000
H    -4.478000000    -8.226000000     0.275000000
O    -0.964000000    -1.156000000     3.209000000
H    -0.438000000    -1.454000000     2.467000000
H    -1.870000000    -1.298000000     2.932000000
O     4.493000000    -2.345000000     6.408000000
H     4.293000000    -3.181000000     6.828000000
H     4.298000000    -2.489000000     5.482000000
