215
-1446.54542
C    -0.704000000     2.634000000     4.217000000
H    -1.741000000     2.811000000     3.940000000
C     0.401000000     3.002000000     3.424000000
C     1.726000000     2.621000000     3.731000000
H     2.510000000     2.900000000     3.032000000
C     0.150000000     3.519000000     2.035000000
O    -1.177000000     4.056000000     2.051000000
H     0.162000000     2.658000000     1.351000000
O     1.089000000     4.503000000     1.564000000
C     1.318000000     4.525000000     0.208000000
C     2.532000000     3.939000000    -0.006000000
H     3.051000000     3.613000000     0.891000000
C     2.908000000     3.648000000    -1.326000000
O     3.982000000     2.879000000    -1.472000000
C     2.105000000     3.991000000    -2.384000000
C     2.491000000     3.496000000    -3.743000000
H     1.938000000     4.095000000    -4.470000000
C     2.031000000     2.070000000    -3.938000000
C     0.738000000     1.871000000    -4.503000000
H     0.206000000     2.764000000    -4.823000000
H     3.564000000     3.659000000    -3.860000000
C     0.915000000     4.658000000    -2.144000000
H     0.223000000     4.723000000    -2.980000000
C     0.466000000     4.981000000    -0.784000000
C    -0.873000000     5.536000000    -0.467000000
H    -1.232000000     6.155000000    -1.292000000
H    -0.738000000     6.214000000     0.378000000
C    -1.946000000     4.450000000    -0.239000000
C    -2.727000000     4.031000000    -1.334000000
H    -2.548000000     4.403000000    -2.340000000
C    -2.025000000     3.754000000     0.996000000
C    -3.010000000     2.791000000     1.188000000
H    -3.147000000     2.304000000     2.150000000
C    -3.756000000     2.405000000     0.075000000
O    -4.630000000     1.372000000     0.347000000
C    -4.346000000     0.052000000    -0.052000000
C    -4.697000000    -0.941000000     0.984000000
C    -4.708000000    -2.291000000     0.735000000
H    -4.536000000    -2.586000000    -0.297000000
C    -4.847000000    -0.518000000     2.324000000
H    -4.655000000     0.539000000     2.487000000
O    -4.876000000    -0.253000000    -1.330000000
H    -3.254000000     0.029000000    -0.184000000
C    -3.690000000     3.069000000    -1.176000000
C    -4.522000000     2.485000000    -2.347000000
H    -4.830000000     3.224000000    -3.090000000
H    -5.468000000     2.153000000    -1.914000000
C    -3.866000000     1.312000000    -2.945000000
C    -2.907000000     1.324000000    -3.956000000
H    -2.595000000     2.241000000    -4.448000000
C    -4.071000000     0.032000000    -2.429000000
C    -3.379000000    -1.116000000    -2.853000000
H    -3.550000000    -2.039000000    -2.305000000
C    -2.549000000    -1.050000000    -3.922000000
O    -1.784000000    -2.199000000    -4.268000000
C    -0.482000000    -2.305000000    -3.640000000
C    -0.132000000    -3.731000000    -3.249000000
C    -1.040000000    -4.394000000    -2.386000000
H    -2.007000000    -3.937000000    -2.190000000
C     1.112000000    -4.300000000    -3.418000000
H     1.899000000    -3.752000000    -3.929000000
O     0.527000000    -1.772000000    -4.596000000
H    -0.517000000    -1.731000000    -2.703000000
C    -2.268000000     0.211000000    -4.483000000
C    -1.074000000     0.437000000    -5.384000000
H    -1.200000000     1.420000000    -5.843000000
H    -0.987000000    -0.329000000    -6.157000000
C     0.246000000     0.600000000    -4.720000000
C     1.031000000    -0.528000000    -4.567000000
C     2.267000000    -0.356000000    -3.877000000
H     2.873000000    -1.207000000    -3.573000000
C     2.747000000     0.938000000    -3.615000000
O     3.869000000     1.068000000    -2.887000000
C     3.878000000     1.448000000    -1.563000000
H     2.877000000     1.137000000    -1.229000000
C     4.842000000     0.606000000    -0.698000000
C     5.601000000     1.125000000     0.383000000
H     5.701000000     2.200000000     0.504000000
C     4.825000000    -0.768000000    -0.863000000
H     4.190000000    -1.269000000    -1.590000000
C     5.494000000    -1.615000000     0.081000000
O     5.338000000    -2.953000000    -0.131000000
C     6.057000000    -1.086000000     1.239000000
H     6.467000000    -1.780000000     1.968000000
C     6.076000000     0.296000000     1.354000000
O     6.772000000     0.851000000     2.465000000
C     6.260000000     1.610000000     3.480000000
C     5.048000000     1.188000000     4.001000000
H     4.630000000     0.228000000     3.708000000
C     6.788000000     2.820000000     3.891000000
H     7.720000000     3.123000000     3.421000000
C     6.185000000     3.558000000     4.944000000
H     6.598000000     4.495000000     5.308000000
C     5.003000000     3.088000000     5.448000000
H     4.586000000     3.658000000     6.274000000
C     4.333000000     1.987000000     4.935000000
O     3.195000000     1.464000000     5.462000000
C     1.920000000     1.945000000     5.010000000
C     0.862000000     1.699000000     5.824000000
H     0.948000000     1.080000000     6.713000000
C    -0.441000000     1.963000000     5.414000000
O    -1.475000000     1.449000000     6.219000000
C    -2.763000000     1.397000000     5.811000000
C    -3.293000000     0.278000000     5.207000000
H    -2.724000000    -0.601000000     4.915000000
C    -3.519000000     2.423000000     6.360000000
H    -3.082000000     3.240000000     6.927000000
C    -4.910000000     2.304000000     6.178000000
H    -5.509000000     3.130000000     6.553000000
C    -5.552000000     1.133000000     5.677000000
H    -6.628000000     1.059000000     5.808000000
C    -4.708000000     0.190000000     5.131000000
O    -5.216000000    -0.984000000     4.588000000
C    -5.117000000    -1.413000000     3.328000000
C    -5.168000000    -2.738000000     3.097000000
H    -5.436000000    -3.440000000     3.882000000
C    -4.968000000    -3.246000000     1.776000000
O    -5.274000000    -4.539000000     1.483000000
C    -4.800000000    -5.221000000     0.434000000
C    -3.464000000    -5.424000000     0.363000000
H    -2.851000000    -4.922000000     1.107000000
C    -5.675000000    -5.603000000    -0.542000000
H    -6.735000000    -5.458000000    -0.355000000
C    -5.144000000    -6.163000000    -1.665000000
H    -5.818000000    -6.392000000    -2.486000000
C    -3.802000000    -6.297000000    -1.845000000
H    -3.465000000    -6.774000000    -2.761000000
C    -2.945000000    -5.932000000    -0.822000000
O    -1.571000000    -6.207000000    -0.875000000
C    -0.663000000    -5.525000000    -1.718000000
C     0.609000000    -6.060000000    -1.834000000
H     0.909000000    -6.899000000    -1.212000000
C     1.493000000    -5.455000000    -2.722000000
O     2.780000000    -5.892000000    -2.831000000
C     3.823000000    -5.001000000    -2.798000000
C     4.929000000    -5.279000000    -3.584000000
H     4.897000000    -6.068000000    -4.330000000
C     6.144000000    -4.503000000    -3.376000000
H     6.982000000    -4.594000000    -4.062000000
C     6.304000000    -3.700000000    -2.219000000
H     7.216000000    -3.162000000    -1.972000000
C     5.231000000    -3.627000000    -1.320000000
C     4.015000000    -4.213000000    -1.638000000
H     3.205000000    -4.226000000    -0.913000000
C    -0.419000000    -2.759000000     0.390000000
H    -1.153000000    -3.557000000     0.473000000
C    -0.590000000    -1.550000000    -0.212000000
H    -1.606000000    -1.296000000    -0.505000000
C     0.433000000    -0.584000000    -0.282000000
H     0.169000000     0.438000000    -0.774000000
C     1.679000000    -0.892000000     0.295000000
H     2.446000000    -0.122000000     0.298000000
C     1.845000000    -2.163000000     0.881000000
H     2.833000000    -2.294000000     1.316000000
C     0.874000000    -3.149000000     0.918000000
C     1.095000000    -4.580000000     1.469000000
O     2.204000000    -4.826000000     1.818000000
O     0.138000000    -5.240000000     1.830000000
O     4.961000000    -8.536000000    -1.009000000
H     4.166000000    -9.061000000    -1.094000000
H     4.685000000    -7.757000000    -0.526000000
O    -0.902000000    -7.557000000     1.839000000
H    -0.461000000    -6.714000000     1.735000000
H    -0.911000000    -7.933000000     0.958000000
O    -0.933000000    -9.830000000     3.818000000
H    -0.483000000    -9.031000000     3.544000000
H    -1.618000000    -9.526000000     4.415000000
O     3.406000000   -10.527000000     1.889000000
H     3.250000000    -9.655000000     2.250000000
H     3.318000000   -10.414000000     0.943000000
O     4.280000000    -7.006000000     4.397000000
H     3.570000000    -7.313000000     3.834000000
H     4.973000000    -7.657000000     4.285000000
O     1.805000000    -4.878000000     4.830000000
H     1.831000000    -4.996000000     3.881000000
H     2.710000000    -5.006000000     5.112000000
O     4.115000000    -6.414000000     0.702000000
H     3.542000000    -5.713000000     1.014000000
H     4.975000000    -6.199000000     1.065000000
O     2.879000000    -1.925000000     4.846000000
H     3.203000000    -2.450000000     4.114000000
H     2.357000000    -2.537000000     5.366000000
O    -1.825000000    -3.935000000     3.382000000
H    -2.254000000    -4.735000000     3.685000000
H    -1.230000000    -4.229000000     2.691000000
O    -0.085000000    -7.169000000     4.470000000
H     0.367000000    -6.349000000     4.670000000
H    -0.836000000    -6.905000000     3.938000000
O     0.779000000    -9.300000000     6.366000000
H     0.600000000    -8.665000000     5.673000000
H    -0.047000000    -9.769000000     6.481000000
O    -3.695000000    -5.928000000     3.925000000
H    -4.564000000    -5.708000000     4.261000000
H    -3.859000000    -6.590000000     3.253000000
O     4.257000000    -3.912000000     3.171000000
H     3.612000000    -4.405000000     2.664000000
H     4.940000000    -4.551000000     3.375000000
O    -3.505000000    -7.940000000     2.077000000
H    -3.748000000    -8.191000000     1.186000000
H    -2.567000000    -7.753000000     2.025000000
O     2.312000000    -7.805000000     2.607000000
H     2.491000000    -7.179000000     1.906000000
H     1.367000000    -7.743000000     2.749000000
O     2.430000000    -9.654000000    -0.728000000
H     2.171000000    -9.813000000    -1.636000000
H     1.607000000    -9.662000000    -0.240000000
O     6.695000000    -6.136000000     1.429000000
H     7.069000000    -6.121000000     2.310000000
H     6.919000000    -5.282000000     1.059000000
O    -0.583000000    -2.489000000     5.310000000
H     0.280000000    -2.426000000     4.901000000
H    -1.122000000    -2.945000000     4.664000000
O     1.242000000    -2.702000000     7.351000000
H     0.633000000    -2.796000000     8.083000000
H     0.681000000    -2.656000000     6.577000000
