215
-1459.62229
C     0.099000000     2.853000000     4.455000000
H    -0.960000000     2.896000000     4.216000000
C     1.102000000     3.241000000     3.508000000
C     2.406000000     2.930000000     3.787000000
H     3.178000000     3.081000000     3.037000000
C     0.682000000     3.760000000     2.150000000
O    -0.668000000     4.345000000     2.133000000
H     0.738000000     2.866000000     1.511000000
O     1.670000000     4.637000000     1.560000000
C     1.921000000     4.373000000     0.222000000
C     3.014000000     3.559000000     0.026000000
H     3.651000000     3.236000000     0.846000000
C     3.250000000     3.130000000    -1.268000000
O     4.287000000     2.200000000    -1.390000000
C     2.414000000     3.554000000    -2.311000000
C     2.743000000     3.086000000    -3.774000000
H     2.343000000     3.874000000    -4.415000000
C     2.060000000     1.809000000    -4.052000000
C     0.756000000     1.817000000    -4.607000000
H     0.207000000     2.754000000    -4.656000000
H     3.793000000     2.971000000    -4.050000000
C     1.326000000     4.370000000    -2.048000000
H     0.614000000     4.561000000    -2.847000000
C     0.996000000     4.695000000    -0.798000000
C    -0.301000000     5.504000000    -0.484000000
H    -0.532000000     6.099000000    -1.370000000
H    -0.165000000     6.234000000     0.316000000
C    -1.438000000     4.656000000    -0.194000000
C    -2.369000000     4.341000000    -1.245000000
H    -2.245000000     4.704000000    -2.262000000
C    -1.611000000     4.123000000     1.066000000
C    -2.645000000     3.261000000     1.372000000
H    -2.794000000     2.889000000     2.382000000
C    -3.623000000     2.959000000     0.393000000
O    -4.477000000     1.920000000     0.663000000
C    -4.236000000     0.602000000     0.187000000
C    -4.648000000    -0.469000000     1.253000000
C    -5.269000000    -1.692000000     0.943000000
H    -5.648000000    -1.936000000    -0.046000000
C    -4.262000000    -0.230000000     2.580000000
H    -3.494000000     0.502000000     2.817000000
O    -5.026000000     0.346000000    -0.979000000
H    -3.137000000     0.589000000     0.141000000
C    -3.464000000     3.510000000    -0.868000000
C    -4.324000000     3.069000000    -2.057000000
H    -4.256000000     3.817000000    -2.850000000
H    -5.395000000     3.034000000    -1.844000000
C    -3.883000000     1.724000000    -2.626000000
C    -3.035000000     1.764000000    -3.711000000
H    -2.759000000     2.745000000    -4.089000000
C    -4.335000000     0.455000000    -2.128000000
C    -3.933000000    -0.712000000    -2.691000000
H    -4.238000000    -1.613000000    -2.164000000
C    -2.962000000    -0.654000000    -3.713000000
O    -2.284000000    -1.847000000    -4.041000000
C    -0.921000000    -2.009000000    -3.447000000
C    -0.758000000    -3.503000000    -2.977000000
C    -1.580000000    -4.079000000    -1.983000000
H    -2.345000000    -3.452000000    -1.532000000
C     0.265000000    -4.315000000    -3.487000000
H     0.957000000    -3.846000000    -4.182000000
O    -0.023000000    -1.726000000    -4.505000000
H    -0.752000000    -1.291000000    -2.631000000
C    -2.510000000     0.641000000    -4.234000000
C    -1.413000000     0.685000000    -5.293000000
H    -1.582000000     1.621000000    -5.830000000
H    -1.601000000    -0.080000000    -6.049000000
C     0.080000000     0.649000000    -4.821000000
C     0.705000000    -0.565000000    -4.456000000
C     1.945000000    -0.617000000    -3.866000000
H     2.332000000    -1.558000000    -3.485000000
C     2.665000000     0.580000000    -3.733000000
O     3.890000000     0.525000000    -3.002000000
C     3.850000000     0.892000000    -1.635000000
H     2.807000000     0.776000000    -1.306000000
C     4.609000000    -0.178000000    -0.761000000
C     5.312000000     0.226000000     0.383000000
H     5.293000000     1.281000000     0.646000000
C     4.525000000    -1.539000000    -1.060000000
H     3.965000000    -1.846000000    -1.939000000
C     5.012000000    -2.508000000    -0.211000000
O     4.840000000    -3.901000000    -0.415000000
C     5.734000000    -2.080000000     0.897000000
H     6.199000000    -2.842000000     1.516000000
C     5.862000000    -0.709000000     1.232000000
O     6.642000000    -0.323000000     2.317000000
C     6.355000000     0.853000000     3.009000000
C     5.190000000     1.079000000     3.695000000
H     4.413000000     0.336000000     3.532000000
C     7.314000000     1.814000000     2.927000000
H     8.206000000     1.740000000     2.309000000
C     7.094000000     2.964000000     3.812000000
H     7.921000000     3.667000000     3.753000000
C     6.085000000     3.060000000     4.734000000
H     6.047000000     3.909000000     5.411000000
C     5.153000000     2.041000000     4.725000000
O     4.022000000     2.177000000     5.461000000
C     2.720000000     2.238000000     4.985000000
C     1.780000000     2.013000000     5.981000000
H     2.043000000     1.452000000     6.874000000
C     0.415000000     2.224000000     5.660000000
O    -0.576000000     1.693000000     6.509000000
C    -1.935000000     1.622000000     6.124000000
C    -2.436000000     0.363000000     5.728000000
H    -1.685000000    -0.419000000     5.646000000
C    -2.847000000     2.718000000     6.197000000
H    -2.635000000     3.735000000     6.515000000
C    -4.163000000     2.517000000     5.916000000
H    -4.832000000     3.351000000     6.112000000
C    -4.671000000     1.291000000     5.502000000
H    -5.738000000     1.109000000     5.412000000
C    -3.755000000     0.312000000     5.332000000
O    -4.313000000    -0.935000000     4.944000000
C    -4.619000000    -1.169000000     3.618000000
C    -5.260000000    -2.337000000     3.303000000
H    -5.500000000    -2.997000000     4.132000000
C    -5.564000000    -2.647000000     1.970000000
O    -6.079000000    -3.896000000     1.637000000
C    -5.480000000    -4.687000000     0.647000000
C    -4.081000000    -4.759000000     0.399000000
H    -3.347000000    -4.283000000     1.045000000
C    -6.366000000    -5.343000000    -0.260000000
H    -7.440000000    -5.173000000    -0.223000000
C    -5.825000000    -6.195000000    -1.229000000
H    -6.477000000    -6.771000000    -1.881000000
C    -4.404000000    -6.378000000    -1.255000000
H    -3.962000000    -7.058000000    -1.978000000
C    -3.552000000    -5.625000000    -0.519000000
O    -2.216000000    -5.866000000    -0.536000000
C    -1.365000000    -5.354000000    -1.442000000
C    -0.273000000    -6.069000000    -1.946000000
H    -0.115000000    -7.069000000    -1.550000000
C     0.578000000    -5.561000000    -2.890000000
O     1.689000000    -6.315000000    -3.248000000
C     2.865000000    -5.767000000    -3.011000000
C     3.744000000    -5.513000000    -4.079000000
H     3.488000000    -5.977000000    -5.028000000
C     4.843000000    -4.663000000    -3.986000000
H     5.432000000    -4.291000000    -4.820000000
C     5.117000000    -4.046000000    -2.774000000
H     5.983000000    -3.396000000    -2.688000000
C     4.386000000    -4.403000000    -1.644000000
C     3.216000000    -5.211000000    -1.768000000
H     2.568000000    -5.250000000    -0.897000000
C     0.034000000    -2.355000000     0.447000000
H    -0.284000000    -3.384000000     0.304000000
C    -0.571000000    -1.219000000    -0.033000000
H    -1.430000000    -1.260000000    -0.697000000
C     0.118000000     0.043000000     0.025000000
H    -0.245000000     0.943000000    -0.528000000
C     1.378000000     0.066000000     0.673000000
H     1.916000000     1.009000000     0.731000000
C     1.857000000    -1.067000000     1.329000000
H     2.849000000    -1.026000000     1.773000000
C     1.245000000    -2.288000000     1.235000000
C     1.827000000    -3.521000000     1.874000000
O     2.719000000    -3.321000000     2.678000000
O     1.240000000    -4.590000000     1.767000000
O     3.227000000    -8.657000000    -0.554000000
H     2.346000000    -8.963000000    -0.768000000
H     3.086000000    -7.878000000    -0.015000000
O    -1.166000000    -5.856000000     2.217000000
H    -0.498000000    -5.381000000     1.723000000
H    -1.450000000    -6.553000000     1.627000000
O     2.164000000    -9.742000000     2.852000000
H     2.723000000    -9.118000000     3.315000000
H     1.541000000    -9.196000000     2.372000000
O     5.134000000    -6.084000000     1.249000000
H     5.138000000    -5.245000000     0.788000000
H     4.209000000    -6.258000000     1.422000000
O     2.436000000    -4.895000000     4.872000000
H     2.107000000    -4.466000000     4.081000000
H     3.242000000    -4.425000000     5.082000000
O     2.407000000    -6.798000000     1.211000000
H     1.730000000    -7.426000000     1.464000000
H     2.080000000    -5.954000000     1.523000000
O     6.829000000    -2.911000000     5.183000000
H     6.247000000    -3.375000000     4.581000000
H     7.505000000    -2.534000000     4.620000000
O     6.972000000    -7.075000000     3.282000000
H     6.045000000    -7.001000000     3.057000000
H     7.045000000    -7.921000000     3.723000000
O     2.716000000    -1.630000000     4.642000000
H     2.860000000    -2.316000000     3.991000000
H     1.909000000    -1.199000000     4.361000000
O    -1.175000000    -2.157000000     7.548000000
H    -2.023000000    -2.051000000     7.978000000
H    -1.390000000    -2.475000000     6.671000000
O    -0.382000000    -4.123000000     4.366000000
H    -0.579000000    -4.644000000     3.588000000
H     0.293000000    -4.623000000     4.825000000
O     4.444000000    -2.429000000     6.538000000
H     5.359000000    -2.456000000     6.258000000
H     3.979000000    -2.037000000     5.799000000
O     0.986000000    -5.824000000     7.877000000
H     1.538000000    -5.987000000     8.642000000
H     1.428000000    -5.115000000     7.410000000
O     2.111000000    -3.124000000     7.859000000
H     1.529000000    -2.365000000     7.848000000
H     2.809000000    -2.901000000     7.243000000
O     5.143000000    -4.311000000     3.474000000
H     4.258000000    -4.122000000     3.160000000
H     5.490000000    -4.943000000     2.843000000
O     3.169000000    -7.536000000     4.387000000
H     3.013000000    -6.609000000     4.566000000
H     3.088000000    -7.962000000     5.240000000
O    -2.623000000    -3.372000000     5.654000000
H    -3.281000000    -2.927000000     5.121000000
H    -1.903000000    -3.550000000     5.049000000
O     0.271000000    -8.844000000     1.142000000
H    -0.515000000    -9.072000000     1.639000000
H     0.158000000    -9.284000000     0.300000000
O    -0.008000000    -1.586000000     3.929000000
H    -0.458000000    -1.310000000     3.131000000
H     0.101000000    -2.531000000     3.829000000
