215
-1425.69794
C     0.498000000     3.345000000     4.373000000
H    -0.467000000     3.827000000     4.239000000
C     1.331000000     3.192000000     3.216000000
C     2.578000000     2.576000000     3.451000000
H     3.315000000     2.534000000     2.654000000
C     0.973000000     3.755000000     1.860000000
O    -0.189000000     4.557000000     1.882000000
H     0.654000000     2.870000000     1.291000000
O     2.066000000     4.353000000     1.130000000
C     2.181000000     4.181000000    -0.224000000
C     3.156000000     3.276000000    -0.589000000
H     3.736000000     2.773000000     0.180000000
C     3.242000000     2.840000000    -1.899000000
O     4.153000000     1.783000000    -2.073000000
C     2.446000000     3.364000000    -2.877000000
C     2.431000000     2.738000000    -4.281000000
H     1.936000000     3.419000000    -4.977000000
C     1.678000000     1.362000000    -4.380000000
C     0.345000000     1.313000000    -4.848000000
H    -0.220000000     2.226000000    -5.017000000
H     3.458000000     2.727000000    -4.653000000
C     1.501000000     4.299000000    -2.567000000
H     0.810000000     4.639000000    -3.334000000
C     1.317000000     4.719000000    -1.236000000
C     0.156000000     5.607000000    -0.882000000
H    -0.089000000     6.197000000    -1.768000000
H     0.556000000     6.249000000    -0.094000000
C    -1.053000000     4.822000000    -0.371000000
C    -2.061000000     4.474000000    -1.323000000
H    -2.103000000     4.807000000    -2.357000000
C    -1.071000000     4.284000000     0.872000000
C    -2.090000000     3.413000000     1.213000000
H    -2.074000000     2.895000000     2.169000000
C    -3.150000000     3.043000000     0.354000000
O    -4.128000000     2.230000000     0.839000000
C    -3.977000000     0.833000000     0.554000000
C    -4.081000000    -0.015000000     1.779000000
C    -4.305000000    -1.347000000     1.698000000
H    -4.408000000    -1.792000000     0.712000000
C    -3.978000000     0.563000000     3.080000000
H    -3.714000000     1.607000000     3.230000000
O    -4.876000000     0.562000000    -0.576000000
H    -2.966000000     0.669000000     0.153000000
C    -3.162000000     3.611000000    -0.973000000
C    -4.155000000     3.227000000    -1.980000000
H    -4.142000000     3.870000000    -2.863000000
H    -5.079000000     3.253000000    -1.399000000
C    -3.858000000     1.785000000    -2.503000000
C    -3.233000000     1.681000000    -3.737000000
H    -3.141000000     2.561000000    -4.369000000
C    -4.291000000     0.605000000    -1.838000000
C    -4.012000000    -0.604000000    -2.453000000
H    -4.236000000    -1.540000000    -1.948000000
C    -3.187000000    -0.723000000    -3.566000000
O    -2.589000000    -1.970000000    -3.898000000
C    -1.289000000    -2.365000000    -3.450000000
C    -1.288000000    -3.834000000    -2.942000000
C    -2.454000000    -4.416000000    -2.406000000
H    -3.432000000    -3.944000000    -2.445000000
C    -0.062000000    -4.522000000    -2.803000000
H     0.806000000    -3.938000000    -3.100000000
O    -0.387000000    -2.227000000    -4.586000000
H    -0.905000000    -1.685000000    -2.676000000
C    -2.755000000     0.401000000    -4.195000000
C    -1.776000000     0.217000000    -5.409000000
H    -1.974000000     1.089000000    -6.036000000
H    -2.079000000    -0.702000000    -5.915000000
C    -0.390000000     0.129000000    -5.009000000
C     0.294000000    -1.064000000    -4.686000000
C     1.634000000    -1.031000000    -4.218000000
H     2.094000000    -2.001000000    -4.048000000
C     2.312000000     0.171000000    -4.161000000
O     3.557000000     0.049000000    -3.601000000
C     3.677000000     0.393000000    -2.179000000
H     2.615000000     0.259000000    -1.927000000
C     4.472000000    -0.553000000    -1.356000000
C     5.443000000    -0.055000000    -0.493000000
H     5.729000000     0.991000000    -0.576000000
C     4.176000000    -1.902000000    -1.353000000
H     3.260000000    -2.204000000    -1.854000000
C     4.874000000    -2.717000000    -0.424000000
O     4.684000000    -4.083000000    -0.480000000
C     5.812000000    -2.228000000     0.404000000
H     6.395000000    -2.957000000     0.960000000
C     6.055000000    -0.873000000     0.400000000
O     7.040000000    -0.314000000     1.249000000
C     6.642000000     0.473000000     2.309000000
C     5.445000000     0.343000000     2.974000000
H     4.753000000    -0.433000000     2.655000000
C     7.559000000     1.303000000     2.843000000
H     8.566000000     1.206000000     2.444000000
C     7.219000000     2.234000000     3.833000000
H     7.979000000     2.912000000     4.212000000
C     6.004000000     2.250000000     4.388000000
H     5.676000000     3.041000000     5.057000000
C     5.104000000     1.178000000     4.060000000
O     3.944000000     1.106000000     4.818000000
C     2.841000000     1.938000000     4.632000000
C     1.953000000     2.084000000     5.704000000
H     2.069000000     1.483000000     6.602000000
C     0.778000000     2.762000000     5.620000000
O    -0.046000000     2.767000000     6.639000000
C    -1.402000000     2.655000000     6.488000000
C    -2.016000000     1.532000000     5.937000000
H    -1.380000000     0.719000000     5.595000000
C    -2.160000000     3.670000000     7.018000000
H    -1.645000000     4.566000000     7.355000000
C    -3.542000000     3.634000000     6.945000000
H    -4.132000000     4.467000000     7.317000000
C    -4.155000000     2.577000000     6.365000000
H    -5.241000000     2.524000000     6.392000000
C    -3.433000000     1.475000000     5.866000000
O    -4.121000000     0.292000000     5.504000000
C    -4.088000000    -0.275000000     4.215000000
C    -4.157000000    -1.640000000     3.999000000
H    -4.112000000    -2.233000000     4.909000000
C    -4.320000000    -2.213000000     2.755000000
O    -4.552000000    -3.556000000     2.546000000
C    -5.032000000    -4.157000000     1.457000000
C    -4.096000000    -4.901000000     0.703000000
H    -3.123000000    -5.150000000     1.120000000
C    -6.334000000    -4.001000000     1.040000000
H    -7.032000000    -3.464000000     1.677000000
C    -6.720000000    -4.583000000    -0.146000000
H    -7.768000000    -4.454000000    -0.403000000
C    -5.802000000    -5.430000000    -0.848000000
H    -6.167000000    -6.024000000    -1.681000000
C    -4.456000000    -5.495000000    -0.496000000
O    -3.624000000    -6.180000000    -1.353000000
C    -2.455000000    -5.693000000    -1.950000000
C    -1.282000000    -6.452000000    -1.968000000
H    -1.303000000    -7.453000000    -1.544000000
C    -0.084000000    -5.893000000    -2.409000000
O     1.079000000    -6.616000000    -2.384000000
C     2.325000000    -5.918000000    -2.564000000
C     3.086000000    -6.050000000    -3.731000000
H     2.775000000    -6.747000000    -4.505000000
C     4.312000000    -5.574000000    -3.833000000
H     4.873000000    -5.857000000    -4.719000000
C     4.944000000    -4.885000000    -2.772000000
H     5.944000000    -4.459000000    -2.799000000
C     4.157000000    -4.649000000    -1.620000000
C     2.869000000    -5.203000000    -1.483000000
H     2.255000000    -5.152000000    -0.588000000
C    -0.523000000    -2.499000000     0.541000000
H    -1.128000000    -3.381000000     0.346000000
C    -0.727000000    -1.268000000    -0.058000000
H    -1.588000000    -1.080000000    -0.695000000
C     0.195000000    -0.225000000     0.089000000
H     0.088000000     0.734000000    -0.349000000
C     1.381000000    -0.394000000     0.730000000
H     2.152000000     0.370000000     0.797000000
C     1.659000000    -1.657000000     1.252000000
H     2.463000000    -1.806000000     1.968000000
C     0.760000000    -2.746000000     1.145000000
C     1.050000000    -4.111000000     1.708000000
O     2.146000000    -4.441000000     2.035000000
O     0.160000000    -4.875000000     1.941000000
O    -3.875000000    -5.703000000     4.768000000
H    -3.103000000    -5.679000000     4.203000000
H    -3.703000000    -5.041000000     5.437000000
O    -1.835000000    -6.103000000     3.102000000
H    -1.144000000    -5.552000000     2.733000000
H    -1.732000000    -6.945000000     2.660000000
O     3.518000000    -9.007000000     4.098000000
H     4.028000000    -9.795000000     4.285000000
H     2.825000000    -9.008000000     4.758000000
O     2.075000000    -6.392000000     4.048000000
H     1.868000000    -5.922000000     3.241000000
H     2.780000000    -6.992000000     3.803000000
O     4.141000000    -6.224000000     1.203000000
H     4.702000000    -5.656000000     0.676000000
H     3.414000000    -5.661000000     1.471000000
O     5.715000000    -7.847000000     2.423000000
H     5.111000000    -7.303000000     1.916000000
H     5.148000000    -8.426000000     2.931000000
O     0.871000000    -4.310000000     5.418000000
H     1.393000000    -4.778000000     4.766000000
H     1.484000000    -4.127000000     6.130000000
O     1.131000000    -6.992000000     1.086000000
H     0.323000000    -7.483000000     0.940000000
H     0.838000000    -6.133000000     1.392000000
O     7.015000000    -4.016000000     3.884000000
H     6.066000000    -3.888000000     3.878000000
H     7.321000000    -3.576000000     3.091000000
O     2.808000000    -7.143000000     6.621000000
H     3.609000000    -6.713000000     6.919000000
H     2.541000000    -6.643000000     5.849000000
O     2.010000000    -9.378000000    -2.124000000
H     2.345000000    -9.078000000    -1.280000000
H     2.757000000    -9.306000000    -2.718000000
O    -1.136000000    -5.890000000     6.575000000
H    -1.323000000    -6.022000000     5.645000000
H    -0.386000000    -5.295000000     6.586000000
O    -1.283000000    -8.098000000     1.346000000
H    -2.144000000    -7.856000000     1.004000000
H    -1.151000000    -8.998000000     1.048000000
O     4.465000000    -3.126000000     3.215000000
H     3.623000000    -3.485000000     2.938000000
H     4.238000000    -2.437000000     3.840000000
O     2.201000000    -1.177000000     4.847000000
H     2.296000000    -0.371000000     4.339000000
H     1.272000000    -1.398000000     4.774000000
O    -0.384000000    -1.992000000     4.384000000
H    -0.743000000    -2.033000000     3.497000000
H    -0.379000000    -2.902000000     4.682000000
O     0.225000000    -8.597000000     3.510000000
H    -0.167000000    -8.782000000     2.657000000
H     0.833000000    -7.876000000     3.344000000
O     3.206000000    -8.498000000     0.219000000
H     2.499000000    -8.154000000     0.765000000
H     3.978000000    -8.000000000     0.487000000
O     3.413000000    -3.151000000     7.143000000
H     3.788000000    -2.354000000     6.769000000
H     3.958000000    -3.336000000     7.908000000
