215
-1468.76811
C    -0.699000000     1.222000000     4.479000000
H    -1.675000000     1.137000000     4.009000000
C     0.145000000     2.200000000     4.004000000
C     1.420000000     2.353000000     4.590000000
H     2.086000000     3.086000000     4.141000000
C    -0.382000000     2.985000000     2.836000000
O    -1.766000000     3.395000000     2.901000000
H    -0.376000000     2.299000000     1.976000000
O     0.389000000     4.163000000     2.587000000
C     0.896000000     4.290000000     1.330000000
C     2.093000000     3.764000000     0.997000000
H     2.683000000     3.259000000     1.757000000
C     2.521000000     3.686000000    -0.277000000
O     3.665000000     3.031000000    -0.547000000
C     1.710000000     4.268000000    -1.306000000
C     2.160000000     4.196000000    -2.768000000
H     1.767000000     5.051000000    -3.320000000
C     1.765000000     2.951000000    -3.447000000
C     0.547000000     2.888000000    -4.204000000
H    -0.065000000     3.786000000    -4.218000000
H     3.241000000     4.351000000    -2.781000000
C     0.475000000     4.846000000    -1.025000000
H    -0.182000000     5.140000000    -1.840000000
C     0.042000000     4.761000000     0.302000000
C    -1.412000000     5.199000000     0.677000000
H    -1.719000000     6.002000000     0.002000000
H    -1.326000000     5.722000000     1.631000000
C    -2.392000000     4.082000000     0.680000000
C    -3.075000000     3.778000000    -0.470000000
H    -3.003000000     4.379000000    -1.373000000
C    -2.512000000     3.278000000     1.786000000
C    -3.437000000     2.235000000     1.847000000
H    -3.444000000     1.495000000     2.644000000
C    -4.186000000     2.072000000     0.705000000
O    -4.966000000     0.975000000     0.679000000
C    -4.287000000    -0.182000000     0.102000000
C    -4.567000000    -1.411000000     1.014000000
C    -4.341000000    -2.684000000     0.509000000
H    -3.930000000    -2.772000000    -0.493000000
C    -4.781000000    -1.262000000     2.396000000
H    -4.902000000    -0.290000000     2.867000000
O    -4.717000000    -0.422000000    -1.289000000
H    -3.218000000     0.072000000     0.144000000
C    -4.061000000     2.764000000    -0.457000000
C    -4.787000000     2.407000000    -1.752000000
H    -4.719000000     3.305000000    -2.370000000
H    -5.839000000     2.165000000    -1.589000000
C    -3.955000000     1.491000000    -2.548000000
C    -3.072000000     1.904000000    -3.526000000
H    -2.885000000     2.964000000    -3.679000000
C    -4.051000000     0.125000000    -2.305000000
C    -3.355000000    -0.776000000    -3.155000000
H    -3.275000000    -1.838000000    -2.937000000
C    -2.430000000    -0.298000000    -4.110000000
O    -1.605000000    -1.223000000    -4.704000000
C    -0.244000000    -1.354000000    -4.193000000
C     0.182000000    -2.831000000    -4.081000000
C    -0.741000000    -3.832000000    -3.677000000
H    -1.777000000    -3.593000000    -3.452000000
C     1.480000000    -3.210000000    -4.265000000
H     2.218000000    -2.479000000    -4.586000000
O     0.650000000    -0.670000000    -5.072000000
H    -0.131000000    -0.836000000    -3.229000000
C    -2.299000000     1.057000000    -4.310000000
C    -1.310000000     1.549000000    -5.354000000
H    -1.649000000     2.519000000    -5.724000000
H    -1.360000000     0.990000000    -6.290000000
C     0.172000000     1.672000000    -4.802000000
C     1.032000000     0.604000000    -4.702000000
C     2.209000000     0.676000000    -3.996000000
H     2.802000000    -0.219000000    -3.825000000
C     2.605000000     1.799000000    -3.368000000
O     3.678000000     1.773000000    -2.495000000
C     3.490000000     1.684000000    -1.046000000
H     2.449000000     1.376000000    -0.872000000
C     4.421000000     0.701000000    -0.362000000
C     4.947000000     1.020000000     0.870000000
H     4.797000000     1.983000000     1.351000000
C     4.670000000    -0.530000000    -0.889000000
H     4.338000000    -0.640000000    -1.918000000
C     5.492000000    -1.455000000    -0.234000000
O     5.919000000    -2.621000000    -0.875000000
C     6.025000000    -1.195000000     0.966000000
H     6.555000000    -2.003000000     1.465000000
C     5.746000000     0.095000000     1.512000000
O     6.319000000     0.357000000     2.732000000
C     5.816000000     1.236000000     3.673000000
C     4.554000000     1.016000000     4.316000000
H     4.037000000     0.094000000     4.062000000
C     6.529000000     2.365000000     4.007000000
H     7.458000000     2.543000000     3.473000000
C     6.156000000     3.216000000     5.072000000
H     6.744000000     4.063000000     5.416000000
C     4.991000000     2.898000000     5.697000000
H     4.727000000     3.533000000     6.539000000
C     4.175000000     1.793000000     5.327000000
O     3.083000000     1.493000000     6.137000000
C     1.799000000     1.552000000     5.668000000
C     0.858000000     0.701000000     6.238000000
H     1.165000000     0.111000000     7.098000000
C    -0.371000000     0.549000000     5.653000000
O    -1.202000000    -0.437000000     6.163000000
C    -2.583000000    -0.429000000     6.029000000
C    -3.336000000    -1.403000000     5.325000000
H    -2.843000000    -2.241000000     4.839000000
C    -3.333000000     0.499000000     6.771000000
H    -2.782000000     1.195000000     7.397000000
C    -4.737000000     0.424000000     6.838000000
H    -5.280000000     1.159000000     7.428000000
C    -5.439000000    -0.516000000     6.056000000
H    -6.524000000    -0.527000000     5.990000000
C    -4.709000000    -1.323000000     5.278000000
O    -5.353000000    -2.261000000     4.473000000
C    -5.030000000    -2.386000000     3.134000000
C    -4.909000000    -3.637000000     2.573000000
H    -4.977000000    -4.559000000     3.146000000
C    -4.513000000    -3.844000000     1.244000000
O    -4.151000000    -5.104000000     0.804000000
C    -3.879000000    -5.486000000    -0.525000000
C    -2.610000000    -5.739000000    -0.925000000
H    -1.693000000    -5.748000000    -0.342000000
C    -4.944000000    -5.455000000    -1.386000000
H    -5.980000000    -5.469000000    -1.057000000
C    -4.627000000    -5.443000000    -2.801000000
H    -5.467000000    -5.421000000    -3.490000000
C    -3.321000000    -5.659000000    -3.193000000
H    -3.057000000    -5.654000000    -4.247000000
C    -2.324000000    -5.831000000    -2.230000000
O    -1.028000000    -6.000000000    -2.618000000
C    -0.315000000    -5.103000000    -3.382000000
C     1.023000000    -5.432000000    -3.622000000
H     1.455000000    -6.404000000    -3.398000000
C     1.921000000    -4.491000000    -3.956000000
O     3.242000000    -4.847000000    -4.127000000
C     4.345000000    -3.996000000    -3.848000000
C     5.260000000    -3.651000000    -4.865000000
H     5.256000000    -4.127000000    -5.842000000
C     6.414000000    -2.895000000    -4.554000000
H     7.226000000    -2.694000000    -5.248000000
C     6.600000000    -2.568000000    -3.214000000
H     7.545000000    -2.130000000    -2.902000000
C     5.698000000    -2.910000000    -2.223000000
C     4.539000000    -3.633000000    -2.549000000
H     3.806000000    -3.799000000    -1.764000000
C     0.680000000    -2.634000000    -0.059000000
H     0.323000000    -3.548000000    -0.528000000
C    -0.030000000    -1.533000000    -0.359000000
H    -0.892000000    -1.755000000    -0.982000000
C     0.278000000    -0.306000000     0.170000000
H    -0.283000000     0.597000000    -0.196000000
C     1.403000000    -0.242000000     1.019000000
H     1.723000000     0.686000000     1.488000000
C     2.227000000    -1.360000000     1.311000000
H     3.137000000    -1.287000000     1.901000000
C     1.854000000    -2.590000000     0.726000000
C     2.739000000    -3.819000000     0.900000000
O     3.642000000    -3.876000000     1.708000000
O     2.489000000    -4.823000000     0.295000000
O     0.190000000    -5.351000000     1.687000000
H     0.883000000    -5.286000000     1.030000000
H    -0.112000000    -6.258000000     1.628000000
O     3.736000000    -3.274000000     5.824000000
H     3.671000000    -4.174000000     6.146000000
H     3.100000000    -3.229000000     5.111000000
O     3.271000000   -10.335000000     2.186000000
H     4.033000000    -9.989000000     2.651000000
H     3.256000000    -9.853000000     1.359000000
O     2.139000000    -7.058000000    -0.928000000
H     2.430000000    -6.166000000    -0.740000000
H     1.362000000    -7.177000000    -0.382000000
O     4.901000000    -6.040000000     5.898000000
H     5.300000000    -6.241000000     6.745000000
H     4.352000000    -6.800000000     5.706000000
O     2.001000000    -4.315000000     3.836000000
H     1.196000000    -4.498000000     3.352000000
H     2.686000000    -4.311000000     3.168000000
O    -0.244000000    -8.176000000     1.151000000
H    -0.854000000    -8.767000000     0.708000000
H     0.022000000    -8.652000000     1.938000000
O     0.493000000    -7.435000000     4.491000000
H    -0.133000000    -8.141000000     4.331000000
H     0.078000000    -6.895000000     5.163000000
O    -1.730000000    -4.367000000     4.626000000
H    -1.252000000    -4.005000000     3.880000000
H    -2.243000000    -5.085000000     4.256000000
O     2.574000000    -6.889000000     2.276000000
H     2.733000000    -6.092000000     1.770000000
H     1.876000000    -6.650000000     2.886000000
O     0.231000000    -5.203000000     6.240000000
H     0.971000000    -4.824000000     5.766000000
H    -0.541000000    -4.869000000     5.784000000
O     4.326000000    -8.291000000    -2.304000000
H     4.753000000    -7.599000000    -2.810000000
H     3.636000000    -7.840000000    -1.817000000
O     5.505000000    -2.828000000     3.631000000
H     5.107000000    -3.231000000     2.859000000
H     4.821000000    -2.867000000     4.301000000
O     4.649000000    -8.047000000     3.627000000
H     4.083000000    -7.553000000     3.034000000
H     5.526000000    -7.702000000     3.464000000
O     5.065000000    -6.009000000     0.369000000
H     4.400000000    -6.479000000    -0.136000000
H     4.584000000    -5.302000000     0.799000000
O     8.323000000    -5.005000000    -0.928000000
H     7.523000000    -5.336000000    -0.520000000
H     8.158000000    -4.071000000    -1.056000000
O    -0.441000000    -2.823000000     2.809000000
H     0.227000000    -2.203000000     2.518000000
H    -0.494000000    -3.467000000     2.103000000
O     7.055000000    -5.168000000     4.475000000
H     6.418000000    -5.364000000     5.162000000
H     6.865000000    -4.264000000     4.223000000
O     6.911000000    -6.840000000     2.176000000
H     6.822000000    -6.243000000     2.919000000
H     6.191000000    -6.603000000     1.591000000
