215
-1457.87102
C    -1.470000000     2.329000000     4.897000000
H    -2.409000000     2.790000000     4.601000000
C    -0.323000000     2.704000000     4.148000000
C     0.916000000     2.142000000     4.538000000
H     1.733000000     2.439000000     3.886000000
C    -0.486000000     3.321000000     2.784000000
O    -1.733000000     4.064000000     2.688000000
H    -0.406000000     2.590000000     1.966000000
O     0.559000000     4.261000000     2.527000000
C     1.118000000     4.357000000     1.314000000
C     2.348000000     3.750000000     1.185000000
H     2.861000000     3.285000000     2.023000000
C     2.908000000     3.789000000    -0.111000000
O     4.067000000     3.047000000    -0.241000000
C     2.217000000     4.339000000    -1.191000000
C     2.683000000     4.128000000    -2.641000000
H     2.292000000     4.976000000    -3.207000000
C     2.330000000     2.796000000    -3.240000000
C     1.133000000     2.724000000    -3.978000000
H     0.550000000     3.606000000    -4.230000000
H     3.771000000     4.214000000    -2.606000000
C     0.986000000     4.995000000    -0.968000000
H     0.476000000     5.457000000    -1.811000000
C     0.393000000     4.982000000     0.303000000
C    -0.964000000     5.614000000     0.501000000
H    -1.234000000     6.315000000    -0.292000000
H    -0.908000000     6.198000000     1.422000000
C    -2.062000000     4.514000000     0.434000000
C    -2.654000000     4.191000000    -0.773000000
H    -2.436000000     4.664000000    -1.727000000
C    -2.374000000     3.835000000     1.549000000
C    -3.258000000     2.786000000     1.481000000
H    -3.347000000     2.212000000     2.400000000
C    -3.856000000     2.387000000     0.307000000
O    -4.573000000     1.207000000     0.325000000
C    -4.255000000    -0.026000000    -0.379000000
C    -4.551000000    -1.288000000     0.398000000
C    -4.987000000    -2.460000000    -0.147000000
H    -5.146000000    -2.590000000    -1.215000000
C    -4.187000000    -1.215000000     1.704000000
H    -3.686000000    -0.356000000     2.144000000
O    -4.681000000     0.025000000    -1.716000000
H    -3.161000000    -0.027000000    -0.489000000
C    -3.635000000     3.211000000    -0.847000000
C    -4.282000000     2.767000000    -2.146000000
H    -4.528000000     3.673000000    -2.703000000
H    -5.263000000     2.336000000    -1.931000000
C    -3.463000000     1.683000000    -2.899000000
C    -2.469000000     1.995000000    -3.814000000
H    -2.255000000     3.060000000    -3.794000000
C    -3.730000000     0.360000000    -2.679000000
C    -3.029000000    -0.641000000    -3.320000000
H    -3.241000000    -1.677000000    -3.068000000
C    -1.990000000    -0.323000000    -4.241000000
O    -1.137000000    -1.317000000    -4.679000000
C     0.154000000    -1.452000000    -4.061000000
C     0.453000000    -2.949000000    -3.667000000
C    -0.615000000    -3.693000000    -3.124000000
H    -1.646000000    -3.348000000    -3.107000000
C     1.710000000    -3.402000000    -3.830000000
H     2.496000000    -2.882000000    -4.371000000
O     1.252000000    -0.854000000    -4.816000000
H     0.145000000    -0.949000000    -3.082000000
C    -1.731000000     1.057000000    -4.515000000
C    -0.574000000     1.458000000    -5.349000000
H    -0.776000000     2.476000000    -5.691000000
H    -0.504000000     0.885000000    -6.276000000
C     0.726000000     1.525000000    -4.526000000
C     1.580000000     0.396000000    -4.335000000
C     2.738000000     0.495000000    -3.605000000
H     3.396000000    -0.349000000    -3.412000000
C     3.084000000     1.653000000    -3.029000000
O     4.244000000     1.753000000    -2.278000000
C     3.961000000     1.675000000    -0.813000000
H     2.909000000     1.362000000    -0.740000000
C     4.804000000     0.639000000    -0.104000000
C     5.028000000     0.747000000     1.223000000
H     4.713000000     1.640000000     1.757000000
C     5.084000000    -0.575000000    -0.722000000
H     4.808000000    -0.733000000    -1.762000000
C     5.814000000    -1.524000000    -0.034000000
O     6.293000000    -2.655000000    -0.710000000
C     6.151000000    -1.303000000     1.291000000
H     6.696000000    -2.069000000     1.837000000
C     5.775000000    -0.205000000     1.927000000
O     6.041000000    -0.047000000     3.320000000
C     5.368000000     0.747000000     4.179000000
C     4.216000000     0.347000000     4.852000000
H     3.953000000    -0.707000000     4.883000000
C     5.784000000     2.045000000     4.245000000
H     6.697000000     2.267000000     3.698000000
C     5.029000000     3.031000000     4.953000000
H     5.366000000     4.062000000     4.884000000
C     3.859000000     2.630000000     5.550000000
H     3.191000000     3.348000000     6.020000000
C     3.458000000     1.239000000     5.514000000
O     2.290000000     0.849000000     6.048000000
C     1.059000000     1.281000000     5.655000000
C    -0.065000000     0.983000000     6.402000000
H    -0.039000000     0.259000000     7.213000000
C    -1.372000000     1.518000000     5.998000000
O    -2.538000000     1.207000000     6.664000000
C    -3.602000000     0.473000000     6.223000000
C    -3.316000000    -0.544000000     5.329000000
H    -2.290000000    -0.640000000     4.981000000
C    -4.975000000     0.713000000     6.620000000
H    -5.147000000     1.462000000     7.389000000
C    -6.019000000    -0.102000000     6.095000000
H    -7.058000000     0.065000000     6.366000000
C    -5.657000000    -1.167000000     5.235000000
H    -6.350000000    -1.919000000     4.865000000
C    -4.360000000    -1.322000000     4.749000000
O    -4.048000000    -2.314000000     3.822000000
C    -4.387000000    -2.340000000     2.513000000
C    -4.927000000    -3.501000000     1.933000000
H    -5.080000000    -4.356000000     2.588000000
C    -5.236000000    -3.548000000     0.624000000
O    -5.401000000    -4.785000000     0.054000000
C    -4.688000000    -5.156000000    -1.011000000
C    -3.271000000    -5.207000000    -0.977000000
H    -2.692000000    -4.833000000    -0.136000000
C    -5.387000000    -5.736000000    -2.093000000
H    -6.463000000    -5.875000000    -2.039000000
C    -4.664000000    -6.331000000    -3.159000000
H    -5.255000000    -6.928000000    -3.848000000
C    -3.294000000    -6.207000000    -3.210000000
H    -2.709000000    -6.652000000    -4.011000000
C    -2.608000000    -5.738000000    -2.115000000
O    -1.254000000    -5.742000000    -1.993000000
C    -0.332000000    -4.973000000    -2.623000000
C     0.973000000    -5.434000000    -2.690000000
H     1.158000000    -6.443000000    -2.328000000
C     2.012000000    -4.637000000    -3.231000000
O     3.182000000    -5.229000000    -3.352000000
C     4.388000000    -4.515000000    -3.173000000
C     5.202000000    -4.265000000    -4.319000000
H     4.955000000    -4.458000000    -5.360000000
C     6.432000000    -3.631000000    -4.203000000
H     7.117000000    -3.529000000    -5.041000000
C     6.821000000    -3.094000000    -2.958000000
H     7.791000000    -2.607000000    -3.016000000
C     5.926000000    -3.128000000    -1.931000000
C     4.749000000    -3.866000000    -2.006000000
H     4.151000000    -3.999000000    -1.108000000
C     0.603000000    -2.343000000     0.211000000
H     0.409000000    -3.369000000    -0.093000000
C    -0.118000000    -1.304000000    -0.369000000
H    -0.893000000    -1.515000000    -1.101000000
C     0.172000000    -0.025000000    -0.064000000
H    -0.367000000     0.782000000    -0.607000000
C     1.153000000     0.275000000     0.892000000
H     1.372000000     1.305000000     1.159000000
C     1.898000000    -0.752000000     1.459000000
H     2.725000000    -0.582000000     2.144000000
C     1.592000000    -2.057000000     1.145000000
C     2.526000000    -3.118000000     1.665000000
O     3.197000000    -2.884000000     2.586000000
O     2.497000000    -4.276000000     1.278000000
O     0.522000000    -6.017000000     1.018000000
H     1.284000000    -5.447000000     1.116000000
H     0.199000000    -5.836000000     0.136000000
O     4.118000000    -3.794000000     5.317000000
H     3.511000000    -3.500000000     4.637000000
H     3.559000000    -3.993000000     6.068000000
O     6.371000000    -7.917000000     2.695000000
H     5.637000000    -7.779000000     3.293000000
H     5.984000000    -8.355000000     1.937000000
O     4.143000000    -6.285000000     0.484000000
H     4.844000000    -6.157000000     1.124000000
H     3.466000000    -5.659000000     0.740000000
O     4.605000000    -7.017000000     4.642000000
H     4.677000000    -6.572000000     5.487000000
H     4.126000000    -6.401000000     4.088000000
O     2.100000000    -8.056000000     5.243000000
H     3.010000000    -7.938000000     4.967000000
H     1.621000000    -8.204000000     4.428000000
O     1.718000000    -1.914000000     4.867000000
H     2.329000000    -2.078000000     4.150000000
H     0.861000000    -1.861000000     4.444000000
O     8.385000000    -4.422000000     3.308000000
H     8.237000000    -4.842000000     4.156000000
H     7.509000000    -4.308000000     2.941000000
O    -1.450000000    -4.775000000     2.108000000
H    -0.757000000    -5.303000000     1.712000000
H    -2.147000000    -5.402000000     2.304000000
O     1.350000000    -2.593000000     7.509000000
H     1.481000000    -2.127000000     6.683000000
H     0.859000000    -1.979000000     8.055000000
O     2.636000000    -8.129000000    -0.759000000
H     2.859000000    -7.629000000    -1.544000000
H     3.044000000    -7.642000000    -0.042000000
O     2.534000000    -5.748000000     3.556000000
H     2.345000000    -5.130000000     2.850000000
H     1.773000000    -5.692000000     4.134000000
O     2.470000000    -5.072000000     7.512000000
H     2.270000000    -4.186000000     7.814000000
H     1.704000000    -5.329000000     7.000000000
O     0.095000000    -5.022000000     4.917000000
H     0.199000000    -4.073000000     4.983000000
H    -0.602000000    -5.143000000     4.272000000
O     5.302000000    -4.515000000     2.919000000
H     4.621000000    -3.859000000     2.767000000
H     5.390000000    -4.553000000     3.871000000
O     1.336000000    -8.369000000     2.456000000
H     1.097000000    -8.595000000     1.557000000
H     1.178000000    -7.426000000     2.516000000
O     6.683000000    -7.334000000    -0.668000000
H     6.864000000    -6.934000000    -1.518000000
H     5.763000000    -7.131000000    -0.499000000
O    -0.785000000    -2.470000000     3.452000000
H    -1.099000000    -3.269000000     3.029000000
H    -0.962000000    -1.777000000     2.815000000
O     5.844000000    -1.742000000     6.259000000
H     6.618000000    -2.294000000     6.374000000
H     5.260000000    -2.260000000     5.706000000
