215
-1428.24403
C    -2.250000000    -0.821000000    -4.522000000
H    -2.494000000     0.174000000    -4.886000000
C    -2.611000000    -1.316000000    -3.260000000
C    -2.153000000    -2.548000000    -2.823000000
H    -2.221000000    -2.911000000    -1.801000000
C    -3.375000000    -0.427000000    -2.321000000
O    -3.875000000     0.728000000    -2.895000000
H    -2.584000000    -0.103000000    -1.629000000
O    -4.371000000    -1.107000000    -1.531000000
C    -4.517000000    -0.892000000    -0.212000000
C    -4.090000000    -1.922000000     0.609000000
H    -3.608000000    -2.775000000     0.138000000
C    -3.977000000    -1.808000000     1.990000000
O    -3.332000000    -2.810000000     2.677000000
C    -4.218000000    -0.558000000     2.541000000
C    -3.947000000    -0.193000000     3.988000000
H    -4.439000000     0.701000000     4.378000000
C    -2.481000000     0.328000000     4.089000000
C    -2.172000000     1.676000000     4.009000000
H    -3.082000000     2.259000000     3.898000000
H    -4.025000000    -1.061000000     4.647000000
C    -4.703000000     0.510000000     1.710000000
H    -4.865000000     1.463000000     2.208000000
C    -4.773000000     0.309000000     0.339000000
C    -5.364000000     1.447000000    -0.529000000
H    -6.134000000     2.002000000     0.011000000
H    -6.049000000     1.105000000    -1.307000000
C    -4.285000000     2.313000000    -1.112000000
C    -3.881000000     3.492000000    -0.429000000
H    -4.294000000     3.674000000     0.560000000
C    -3.664000000     1.920000000    -2.277000000
C    -2.640000000     2.664000000    -2.843000000
H    -2.137000000     2.316000000    -3.742000000
C    -2.103000000     3.725000000    -2.132000000
O    -1.022000000     4.314000000    -2.647000000
C     0.224000000     3.814000000    -2.071000000
C     1.144000000     3.350000000    -3.101000000
C     2.365000000     2.878000000    -2.730000000
H     2.610000000     2.708000000    -1.684000000
C     0.857000000     3.410000000    -4.453000000
H    -0.071000000     3.781000000    -4.880000000
O     0.816000000     4.803000000    -1.136000000
H    -0.025000000     2.886000000    -1.536000000
C    -2.760000000     4.149000000    -0.948000000
C    -2.056000000     5.266000000    -0.173000000
H    -2.849000000     5.833000000     0.319000000
H    -1.569000000     5.897000000    -0.919000000
C    -0.938000000     4.798000000     0.719000000
C    -1.224000000     4.458000000     2.021000000
H    -2.266000000     4.376000000     2.322000000
C     0.399000000     4.602000000     0.217000000
C     1.362000000     4.185000000     1.080000000
H     2.287000000     4.026000000     0.531000000
C     1.107000000     3.940000000     2.447000000
O     2.116000000     3.345000000     3.171000000
C     2.103000000     1.855000000     3.260000000
C     3.519000000     1.261000000     3.208000000
C     4.295000000     1.366000000     2.079000000
H     3.940000000     2.027000000     1.292000000
C     3.812000000     0.233000000     4.078000000
H     3.285000000     0.047000000     5.010000000
O     1.443000000     1.593000000     4.484000000
H     1.479000000     1.439000000     2.456000000
C    -0.201000000     4.106000000     2.917000000
C    -0.564000000     3.606000000     4.324000000
H    -1.420000000     4.150000000     4.729000000
H     0.261000000     3.745000000     5.025000000
C    -0.830000000     2.133000000     4.261000000
C     0.196000000     1.188000000     4.407000000
C    -0.169000000    -0.164000000     4.462000000
H     0.569000000    -0.900000000     4.771000000
C    -1.459000000    -0.623000000     4.300000000
O    -1.642000000    -1.906000000     4.228000000
C    -1.890000000    -2.553000000     2.968000000
H    -1.423000000    -1.875000000     2.238000000
C    -0.982000000    -3.831000000     2.857000000
C    -1.352000000    -4.853000000     2.015000000
H    -2.360000000    -4.775000000     1.616000000
C     0.242000000    -3.902000000     3.518000000
H     0.596000000    -3.037000000     4.073000000
C     1.066000000    -5.071000000     3.344000000
O     2.313000000    -5.095000000     3.841000000
C     0.626000000    -6.038000000     2.535000000
H     1.343000000    -6.842000000     2.388000000
C    -0.549000000    -5.969000000     1.822000000
O    -0.838000000    -6.909000000     0.898000000
C    -1.276000000    -6.670000000    -0.382000000
C    -0.647000000    -5.730000000    -1.238000000
H     0.283000000    -5.264000000    -0.922000000
C    -2.518000000    -7.243000000    -0.666000000
H    -3.053000000    -7.861000000     0.050000000
C    -3.105000000    -6.859000000    -1.830000000
H    -4.073000000    -7.244000000    -2.139000000
C    -2.474000000    -6.014000000    -2.769000000
H    -3.000000000    -5.823000000    -3.701000000
C    -1.259000000    -5.405000000    -2.403000000
O    -0.707000000    -4.437000000    -3.235000000
C    -1.309000000    -3.303000000    -3.645000000
C    -0.882000000    -2.785000000    -4.926000000
H    -0.288000000    -3.381000000    -5.615000000
C    -1.422000000    -1.647000000    -5.380000000
O    -1.042000000    -1.376000000    -6.644000000
C    -0.904000000    -0.090000000    -7.006000000
C     0.111000000     0.759000000    -6.523000000
H     0.767000000     0.356000000    -5.756000000
C    -1.800000000     0.362000000    -7.980000000
H    -2.518000000    -0.342000000    -8.393000000
C    -1.612000000     1.624000000    -8.544000000
H    -2.324000000     1.919000000    -9.310000000
C    -0.462000000     2.440000000    -8.180000000
H    -0.262000000     3.351000000    -8.738000000
C     0.357000000     2.007000000    -7.118000000
O     1.420000000     2.751000000    -6.722000000
C     1.808000000     2.959000000    -5.399000000
C     2.975000000     2.365000000    -5.009000000
H     3.627000000     1.924000000    -5.759000000
C     3.285000000     2.368000000    -3.658000000
O     4.495000000     1.749000000    -3.352000000
C     5.283000000     2.013000000    -2.261000000
C     5.483000000     1.139000000    -1.236000000
H     5.066000000     0.135000000    -1.248000000
C     5.768000000     3.340000000    -2.211000000
H     5.544000000     4.117000000    -2.936000000
C     6.409000000     3.717000000    -1.044000000
H     6.797000000     4.732000000    -1.056000000
C     6.682000000     2.818000000    -0.012000000
H     7.168000000     3.172000000     0.893000000
C     6.211000000     1.511000000    -0.122000000
O     6.356000000     0.580000000     0.846000000
C     5.471000000     0.612000000     1.929000000
C     5.775000000    -0.333000000     2.889000000
H     6.697000000    -0.891000000     2.748000000
C     4.969000000    -0.534000000     3.987000000
O     5.223000000    -1.512000000     4.917000000
C     4.228000000    -2.357000000     5.305000000
C     3.637000000    -2.299000000     6.605000000
H     3.993000000    -1.497000000     7.246000000
C     2.738000000    -3.296000000     7.020000000
H     2.310000000    -3.168000000     8.011000000
C     2.376000000    -4.350000000     6.137000000
H     1.561000000    -5.022000000     6.395000000
C     2.850000000    -4.256000000     4.792000000
C     3.820000000    -3.377000000     4.432000000
H     4.149000000    -3.239000000     3.406000000
C     2.855000000    -1.244000000    -0.257000000
H     3.635000000    -1.730000000     0.322000000
C     1.849000000    -0.509000000     0.455000000
H     1.850000000    -0.362000000     1.532000000
C     0.744000000    -0.057000000    -0.277000000
H    -0.050000000     0.437000000     0.203000000
C     0.679000000    -0.284000000    -1.708000000
H    -0.226000000     0.020000000    -2.229000000
C     1.654000000    -1.066000000    -2.344000000
H     1.605000000    -1.283000000    -3.408000000
C     2.764000000    -1.458000000    -1.621000000
C     3.776000000    -2.415000000    -2.197000000
O     3.696000000    -2.816000000    -3.338000000
O     4.376000000    -3.189000000    -1.502000000
O     5.263000000    -0.408000000    -5.488000000
H     5.239000000     0.027000000    -4.636000000
H     4.482000000    -0.962000000    -5.497000000
O     6.597000000    -1.950000000    -0.787000000
H     6.852000000    -1.998000000     0.135000000
H     5.792000000    -2.464000000    -0.840000000
O     8.314000000    -0.140000000    -2.119000000
H     7.670000000    -0.462000000    -1.489000000
H     8.763000000     0.571000000    -1.661000000
O     5.782000000    -6.604000000     1.004000000
H     5.101000000    -5.937000000     0.919000000
H     6.477000000    -6.314000000     0.413000000
O     3.749000000     0.366000000    -7.677000000
H     3.897000000     0.058000000    -6.783000000
H     3.127000000    -0.261000000    -8.047000000
O     7.892000000    -0.703000000    -6.087000000
H     7.836000000    -1.088000000    -6.962000000
H     6.981000000    -0.615000000    -5.805000000
O     4.018000000    -7.633000000    -4.726000000
H     4.530000000    -7.749000000    -3.926000000
H     3.515000000    -6.833000000    -4.575000000
O     3.798000000    -4.209000000     0.618000000
H     2.930000000    -3.810000000     0.684000000
H     4.031000000    -4.122000000    -0.307000000
O     6.461000000    -3.494000000     1.491000000
H     5.520000000    -3.589000000     1.343000000
H     6.864000000    -4.092000000     0.862000000
O     2.225000000    -7.740000000    -2.176000000
H     1.337000000    -8.052000000    -2.351000000
H     2.336000000    -6.991000000    -2.762000000
O     2.183000000    -4.252000000    -6.135000000
H     1.387000000    -4.094000000    -6.643000000
H     2.779000000    -4.680000000    -6.751000000
O     7.961000000    -5.719000000    -0.072000000
H     8.656000000    -6.298000000     0.242000000
H     8.236000000    -5.471000000    -0.954000000
O     5.162000000    -5.420000000    -7.010000000
H     5.287000000    -4.691000000    -6.403000000
H     5.981000000    -5.912000000    -6.966000000
O     5.669000000    -3.281000000    -5.305000000
H     5.873000000    -2.387000000    -5.582000000
H     4.989000000    -3.175000000    -4.639000000
O     2.829000000    -1.648000000    -5.693000000
H     2.942000000    -1.897000000    -4.775000000
H     2.444000000    -2.422000000    -6.105000000
O     5.867000000    -7.530000000    -2.672000000
H     6.042000000    -6.596000000    -2.789000000
H     6.715000000    -7.904000000    -2.433000000
O     2.694000000    -5.409000000    -3.743000000
H     2.349000000    -4.966000000    -4.519000000
H     3.046000000    -4.702000000    -3.202000000
O     5.937000000    -4.832000000    -2.866000000
H     6.075000000    -4.614000000    -3.787000000
H     5.165000000    -4.326000000    -2.612000000
O     8.503000000    -4.643000000    -2.535000000
H     8.766000000    -4.394000000    -3.421000000
H     7.569000000    -4.841000000    -2.610000000
