215
-1431.35364
C    -0.774000000     0.580000000     4.547000000
H    -1.614000000     0.123000000     4.028000000
C    -0.289000000     1.867000000     4.476000000
C     0.860000000     2.214000000     5.220000000
H     1.351000000     3.176000000     5.099000000
C    -0.788000000     2.785000000     3.256000000
O    -2.188000000     3.054000000     3.492000000
H    -0.723000000     2.194000000     2.331000000
O     0.044000000     3.929000000     3.082000000
C     0.389000000     4.412000000     1.867000000
C     1.671000000     4.177000000     1.436000000
H     2.401000000     3.835000000     2.166000000
C     2.007000000     4.312000000     0.102000000
O     3.187000000     3.837000000    -0.248000000
C     1.040000000     4.827000000    -0.779000000
C     1.359000000     5.032000000    -2.280000000
H     0.712000000     5.860000000    -2.578000000
C     1.225000000     3.747000000    -3.125000000
C     0.012000000     3.488000000    -3.727000000
H    -0.899000000     4.050000000    -3.536000000
H     2.374000000     5.377000000    -2.488000000
C    -0.256000000     5.046000000    -0.352000000
H    -1.054000000     5.369000000    -1.016000000
C    -0.646000000     4.859000000     0.954000000
C    -2.073000000     5.113000000     1.391000000
H    -2.464000000     5.896000000     0.739000000
H    -2.096000000     5.574000000     2.381000000
C    -2.950000000     3.829000000     1.413000000
C    -3.543000000     3.500000000     0.233000000
H    -3.629000000     4.269000000    -0.529000000
C    -2.984000000     2.837000000     2.428000000
C    -3.665000000     1.664000000     2.241000000
H    -3.546000000     0.848000000     2.949000000
C    -4.233000000     1.374000000     1.041000000
O    -4.853000000     0.142000000     0.861000000
C    -4.070000000    -0.811000000     0.126000000
C    -4.192000000    -2.248000000     0.687000000
C    -3.934000000    -3.362000000    -0.105000000
H    -3.764000000    -3.164000000    -1.160000000
C    -4.467000000    -2.438000000     2.071000000
H    -4.652000000    -1.588000000     2.722000000
O    -4.697000000    -0.821000000    -1.193000000
H    -3.017000000    -0.501000000     0.057000000
C    -4.181000000     2.312000000     0.038000000
C    -4.933000000     2.101000000    -1.280000000
H    -5.065000000     3.074000000    -1.757000000
H    -5.904000000     1.671000000    -1.025000000
C    -4.209000000     1.246000000    -2.299000000
C    -3.489000000     1.909000000    -3.226000000
H    -3.592000000     2.989000000    -3.290000000
C    -4.138000000    -0.178000000    -2.249000000
C    -3.181000000    -0.856000000    -3.058000000
H    -2.909000000    -1.908000000    -3.013000000
C    -2.391000000    -0.177000000    -3.959000000
O    -1.444000000    -0.855000000    -4.639000000
C    -0.096000000    -0.926000000    -4.116000000
C     0.451000000    -2.342000000    -4.141000000
C    -0.359000000    -3.451000000    -4.387000000
H    -1.374000000    -3.356000000    -4.763000000
C     1.738000000    -2.546000000    -3.776000000
H     2.310000000    -1.721000000    -3.360000000
O     0.677000000    -0.014000000    -4.930000000
H     0.001000000    -0.583000000    -3.075000000
C    -2.583000000     1.230000000    -4.047000000
C    -1.649000000     2.076000000    -4.970000000
H    -2.123000000     3.039000000    -5.169000000
H    -1.471000000     1.574000000    -5.923000000
C    -0.247000000     2.231000000    -4.366000000
C     0.864000000     1.311000000    -4.515000000
C     2.099000000     1.664000000    -4.013000000
H     2.881000000     0.921000000    -4.147000000
C     2.291000000     2.795000000    -3.178000000
O     3.414000000     2.941000000    -2.400000000
C     3.220000000     2.609000000    -0.968000000
H     2.219000000     2.164000000    -0.878000000
C     4.284000000     1.588000000    -0.373000000
C     4.505000000     1.510000000     1.008000000
H     3.984000000     2.136000000     1.728000000
C     5.058000000     0.814000000    -1.259000000
H     4.905000000     0.898000000    -2.332000000
C     6.109000000     0.080000000    -0.726000000
O     6.850000000    -0.707000000    -1.562000000
C     6.228000000    -0.139000000     0.654000000
H     6.943000000    -0.865000000     1.034000000
C     5.440000000     0.665000000     1.527000000
O     5.689000000     0.526000000     2.951000000
C     5.320000000     1.447000000     3.951000000
C     4.289000000     1.078000000     4.814000000
H     3.755000000     0.144000000     4.657000000
C     5.946000000     2.683000000     3.998000000
H     6.809000000     2.896000000     3.373000000
C     5.603000000     3.592000000     5.045000000
H     6.133000000     4.537000000     5.135000000
C     4.623000000     3.168000000     5.963000000
H     4.296000000     3.752000000     6.820000000
C     3.912000000     1.981000000     5.755000000
O     2.747000000     1.693000000     6.507000000
C     1.549000000     1.280000000     5.969000000
C     1.069000000     0.014000000     6.036000000
H     1.488000000    -0.733000000     6.706000000
C    -0.170000000    -0.257000000     5.431000000
O    -0.597000000    -1.597000000     5.537000000
C    -2.002000000    -1.827000000     5.637000000
C    -2.574000000    -2.873000000     4.909000000
H    -1.899000000    -3.367000000     4.214000000
C    -2.799000000    -0.958000000     6.439000000
H    -2.372000000    -0.134000000     7.005000000
C    -4.183000000    -1.309000000     6.584000000
H    -4.775000000    -0.628000000     7.191000000
C    -4.759000000    -2.223000000     5.725000000
H    -5.813000000    -2.466000000     5.825000000
C    -3.961000000    -3.053000000     4.949000000
O    -4.467000000    -3.919000000     3.973000000
C    -4.328000000    -3.681000000     2.630000000
C    -3.944000000    -4.761000000     1.846000000
H    -3.826000000    -5.710000000     2.361000000
C    -3.704000000    -4.590000000     0.481000000
O    -3.116000000    -5.645000000    -0.182000000
C    -3.169000000    -5.716000000    -1.598000000
C    -1.937000000    -5.669000000    -2.290000000
H    -0.987000000    -5.475000000    -1.800000000
C    -4.343000000    -6.068000000    -2.296000000
H    -5.279000000    -6.315000000    -1.802000000
C    -4.317000000    -6.211000000    -3.687000000
H    -5.255000000    -6.314000000    -4.226000000
C    -3.085000000    -6.137000000    -4.379000000
H    -3.089000000    -6.335000000    -5.448000000
C    -1.906000000    -5.820000000    -3.699000000
O    -0.708000000    -5.823000000    -4.392000000
C     0.161000000    -4.769000000    -4.157000000
C     1.528000000    -4.943000000    -3.863000000
H     1.924000000    -5.929000000    -3.630000000
C     2.294000000    -3.795000000    -3.637000000
O     3.488000000    -3.897000000    -3.063000000
C     4.605000000    -3.130000000    -3.322000000
C     5.225000000    -3.262000000    -4.594000000
H     4.845000000    -4.067000000    -5.217000000
C     6.455000000    -2.586000000    -4.781000000
H     6.966000000    -2.702000000    -5.734000000
C     6.963000000    -1.797000000    -3.750000000
H     7.867000000    -1.222000000    -3.932000000
C     6.308000000    -1.611000000    -2.477000000
C     5.128000000    -2.350000000    -2.247000000
H     4.640000000    -2.290000000    -1.277000000
C     0.079000000    -2.205000000     1.437000000
H    -0.501000000    -3.102000000     1.640000000
C    -0.339000000    -1.322000000     0.424000000
H    -1.168000000    -1.620000000    -0.214000000
C     0.177000000    -0.035000000     0.311000000
H    -0.034000000     0.565000000    -0.561000000
C     1.214000000     0.323000000     1.209000000
H     1.643000000     1.309000000     1.049000000
C     1.693000000    -0.563000000     2.211000000
H     2.543000000    -0.344000000     2.852000000
C     1.137000000    -1.845000000     2.307000000
C     1.732000000    -2.762000000     3.347000000
O     2.682000000    -2.360000000     3.913000000
O     1.468000000    -3.964000000     3.290000000
O     3.137000000    -2.708000000     6.629000000
H     3.941000000    -3.215000000     6.510000000
H     2.908000000    -2.411000000     5.749000000
O     2.436000000    -5.413000000     1.278000000
H     2.101000000    -4.735000000     1.863000000
H     3.220000000    -5.028000000     0.888000000
O     5.921000000    -4.948000000     1.269000000
H     5.636000000    -5.425000000     0.489000000
H     6.725000000    -4.504000000     0.998000000
O     5.731000000    -3.924000000     6.353000000
H     5.525000000    -4.832000000     6.130000000
H     5.928000000    -3.511000000     5.512000000
O     2.736000000    -7.730000000    -0.480000000
H     2.859000000    -6.787000000    -0.370000000
H     2.417000000    -8.030000000     0.371000000
O     0.569000000    -8.895000000     4.759000000
H     1.234000000    -9.065000000     4.092000000
H     0.538000000    -7.940000000     4.829000000
O    -0.792000000    -5.456000000     7.070000000
H    -1.532000000    -5.631000000     7.653000000
H    -0.563000000    -4.542000000     7.242000000
O     0.465000000    -3.273000000     7.353000000
H     1.382000000    -3.018000000     7.251000000
H     0.159000000    -2.770000000     8.108000000
O    -3.322000000    -6.172000000     6.653000000
H    -2.682000000    -5.470000000     6.537000000
H    -3.573000000    -6.417000000     5.763000000
O     0.225000000    -5.980000000     4.372000000
H     0.599000000    -5.219000000     3.928000000
H     0.085000000    -5.686000000     5.272000000
O     5.232000000    -2.891000000     3.772000000
H     5.201000000    -3.543000000     3.072000000
H     4.340000000    -2.546000000     3.819000000
O     3.335000000    -5.167000000     4.405000000
H     3.659000000    -5.449000000     3.549000000
H     2.589000000    -4.602000000     4.205000000
O     7.332000000    -1.220000000     5.534000000
H     6.577000000    -1.430000000     4.985000000
H     7.982000000    -0.870000000     4.925000000
O     1.241000000    -7.941000000     1.885000000
H     0.287000000    -7.980000000     1.956000000
H     1.429000000    -7.021000000     1.697000000
O     3.433000000    -3.972000000     9.212000000
H     3.539000000    -3.735000000     8.290000000
H     4.116000000    -4.623000000     9.371000000
O     3.581000000    -8.170000000     7.172000000
H     2.942000000    -7.476000000     7.010000000
H     4.402000000    -7.827000000     6.819000000
O    -1.348000000    -7.382000000     2.519000000
H    -2.051000000    -7.729000000     3.068000000
H    -0.848000000    -6.810000000     3.102000000
O     2.525000000    -5.483000000     7.010000000
H     1.844000000    -4.811000000     7.050000000
H     2.772000000    -5.519000000     6.086000000
O     6.595000000    -6.991000000     3.427000000
H     7.198000000    -7.454000000     2.845000000
H     6.453000000    -6.146000000     3.001000000
