215
-1440.76251
C    -0.043000000    -1.790000000     4.443000000
H    -1.045000000    -1.732000000     4.024000000
C     0.653000000    -0.598000000     4.443000000
C     1.959000000    -0.524000000     4.889000000
H     2.539000000     0.396000000     4.890000000
C    -0.090000000     0.678000000     3.939000000
O    -1.408000000     0.864000000     4.450000000
H    -0.126000000     0.661000000     2.840000000
O     0.566000000     1.889000000     4.376000000
C     0.593000000     2.933000000     3.404000000
C     1.804000000     3.010000000     2.788000000
H     2.682000000     2.479000000     3.147000000
C     1.952000000     3.826000000     1.725000000
O     3.071000000     3.686000000     0.986000000
C     0.915000000     4.644000000     1.298000000
C     1.111000000     5.626000000     0.137000000
H     0.531000000     6.546000000     0.233000000
C     0.718000000     4.943000000    -1.197000000
C    -0.632000000     4.804000000    -1.636000000
H    -1.381000000     5.367000000    -1.084000000
H     2.163000000     5.898000000     0.027000000
C    -0.270000000     4.629000000     1.995000000
H    -1.166000000     5.188000000     1.735000000
C    -0.512000000     3.720000000     3.051000000
C    -1.838000000     3.674000000     3.797000000
H    -2.423000000     4.596000000     3.747000000
H    -1.651000000     3.392000000     4.835000000
C    -2.606000000     2.515000000     3.165000000
C    -3.461000000     2.742000000     2.069000000
H    -3.636000000     3.729000000     1.650000000
C    -2.458000000     1.235000000     3.681000000
C    -3.201000000     0.141000000     3.221000000
H    -3.123000000    -0.876000000     3.598000000
C    -4.122000000     0.383000000     2.232000000
O    -4.841000000    -0.693000000     1.717000000
C    -4.257000000    -1.217000000     0.450000000
C    -4.225000000    -2.785000000     0.436000000
C    -4.289000000    -3.499000000    -0.765000000
H    -4.274000000    -2.973000000    -1.716000000
C    -4.120000000    -3.495000000     1.648000000
H    -4.117000000    -2.973000000     2.602000000
O    -4.862000000    -0.776000000    -0.752000000
H    -3.196000000    -0.931000000     0.383000000
C    -4.226000000     1.666000000     1.645000000
C    -5.170000000     1.832000000     0.422000000
H    -5.564000000     2.848000000     0.496000000
H    -6.095000000     1.268000000     0.557000000
C    -4.510000000     1.615000000    -0.886000000
C    -3.835000000     2.709000000    -1.488000000
H    -3.906000000     3.664000000    -0.972000000
C    -4.354000000     0.327000000    -1.431000000
C    -3.613000000     0.224000000    -2.577000000
H    -3.560000000    -0.790000000    -2.965000000
C    -3.058000000     1.317000000    -3.261000000
O    -2.116000000     1.150000000    -4.204000000
C    -0.712000000     1.153000000    -3.862000000
C    -0.025000000    -0.179000000    -4.339000000
C    -0.717000000    -1.433000000    -4.333000000
H    -1.781000000    -1.402000000    -4.112000000
C     1.292000000    -0.166000000    -4.793000000
H     1.777000000     0.799000000    -4.909000000
O    -0.161000000     2.440000000    -4.392000000
H    -0.584000000     1.246000000    -2.773000000
C    -3.076000000     2.577000000    -2.651000000
C    -2.396000000     3.865000000    -3.152000000
H    -2.926000000     4.688000000    -2.668000000
H    -2.708000000     4.052000000    -4.181000000
C    -0.936000000     4.063000000    -2.773000000
C     0.049000000     3.406000000    -3.443000000
C     1.353000000     3.575000000    -3.062000000
H     2.117000000     3.035000000    -3.614000000
C     1.687000000     4.189000000    -1.859000000
O     2.885000000     4.037000000    -1.376000000
C     2.936000000     3.045000000    -0.277000000
H     2.094000000     2.340000000    -0.346000000
C     4.133000000     2.106000000    -0.502000000
C     4.555000000     1.237000000     0.588000000
H     3.978000000     1.232000000     1.509000000
C     4.817000000     2.042000000    -1.700000000
H     4.517000000     2.673000000    -2.534000000
C     5.832000000     1.105000000    -1.816000000
O     6.365000000     0.954000000    -3.080000000
C     6.312000000     0.327000000    -0.769000000
H     7.134000000    -0.383000000    -0.812000000
C     5.679000000     0.446000000     0.451000000
O     5.958000000    -0.485000000     1.360000000
C     5.952000000    -0.325000000     2.725000000
C     5.029000000    -0.982000000     3.409000000
H     4.370000000    -1.691000000     2.914000000
C     6.791000000     0.615000000     3.353000000
H     7.469000000     1.259000000     2.799000000
C     6.615000000     0.792000000     4.723000000
H     7.282000000     1.466000000     5.254000000
C     5.665000000     0.073000000     5.399000000
H     5.507000000     0.330000000     6.443000000
C     4.850000000    -0.822000000     4.732000000
O     4.014000000    -1.664000000     5.445000000
C     2.654000000    -1.684000000     5.236000000
C     1.964000000    -2.945000000     5.199000000
H     2.465000000    -3.857000000     5.513000000
C     0.603000000    -2.947000000     4.824000000
O    -0.010000000    -4.163000000     4.760000000
C    -1.327000000    -4.317000000     4.830000000
C    -1.973000000    -4.976000000     3.820000000
H    -1.493000000    -5.365000000     2.926000000
C    -2.011000000    -3.580000000     5.810000000
H    -1.444000000    -3.087000000     6.596000000
C    -3.369000000    -3.812000000     5.962000000
H    -3.960000000    -3.357000000     6.753000000
C    -4.014000000    -4.557000000     4.989000000
H    -5.100000000    -4.571000000     4.946000000
C    -3.358000000    -5.108000000     3.874000000
O    -4.036000000    -5.567000000     2.820000000
C    -4.005000000    -4.843000000     1.652000000
C    -4.114000000    -5.552000000     0.464000000
H    -4.060000000    -6.637000000     0.508000000
C    -4.153000000    -4.889000000    -0.737000000
O    -4.071000000    -5.554000000    -1.941000000
C    -3.730000000    -4.959000000    -3.127000000
C    -2.415000000    -4.679000000    -3.272000000
H    -1.615000000    -4.891000000    -2.568000000
C    -4.658000000    -4.702000000    -4.145000000
H    -5.711000000    -4.948000000    -4.037000000
C    -4.228000000    -4.065000000    -5.350000000
H    -4.896000000    -3.970000000    -6.202000000
C    -2.887000000    -3.708000000    -5.418000000
H    -2.575000000    -3.186000000    -6.319000000
C    -2.041000000    -3.937000000    -4.409000000
O    -0.718000000    -3.805000000    -4.603000000
C    -0.101000000    -2.574000000    -4.720000000
C     1.190000000    -2.503000000    -5.152000000
H     1.715000000    -3.410000000    -5.441000000
C     1.875000000    -1.333000000    -5.172000000
O     3.188000000    -1.451000000    -5.764000000
C     4.133000000    -0.477000000    -5.581000000
C     4.435000000     0.371000000    -6.677000000
H     3.842000000     0.267000000    -7.582000000
C     5.352000000     1.388000000    -6.508000000
H     5.560000000     2.112000000    -7.292000000
C     6.122000000     1.456000000    -5.316000000
H     6.947000000     2.163000000    -5.312000000
C     5.723000000     0.715000000    -4.204000000
C     4.765000000    -0.323000000    -4.357000000
H     4.701000000    -0.962000000    -3.480000000
C     0.246000000    -2.403000000    -0.738000000
H    -0.090000000    -3.166000000    -1.435000000
C    -0.610000000    -1.376000000    -0.457000000
H    -1.575000000    -1.288000000    -0.950000000
C    -0.113000000    -0.349000000     0.282000000
H    -0.771000000     0.538000000     0.404000000
C     1.141000000    -0.399000000     0.864000000
H     1.562000000     0.467000000     1.367000000
C     1.922000000    -1.539000000     0.732000000
H     2.935000000    -1.538000000     1.126000000
C     1.483000000    -2.609000000    -0.076000000
C     2.381000000    -3.758000000    -0.422000000
O     3.117000000    -4.100000000     0.466000000
O     2.303000000    -4.357000000    -1.481000000
O     5.491000000    -3.741000000    -1.407000000
H     5.512000000    -4.448000000    -2.052000000
H     4.585000000    -3.726000000    -1.097000000
O     2.974000000    -7.479000000    -4.236000000
H     3.728000000    -7.760000000    -3.718000000
H     2.221000000    -7.880000000    -3.801000000
O     5.685000000    -4.915000000    -5.105000000
H     4.929000000    -4.739000000    -4.544000000
H     5.525000000    -5.792000000    -5.454000000
O     4.526000000    -6.124000000     1.508000000
H     3.965000000    -5.586000000     0.948000000
H     5.360000000    -5.656000000     1.533000000
O     0.526000000    -9.176000000    -0.939000000
H     0.431000000   -10.084000000    -0.654000000
H     0.888000000    -8.722000000    -0.177000000
O     3.116000000    -7.057000000     3.466000000
H     2.364000000    -6.475000000     3.359000000
H     3.760000000    -6.733000000     2.836000000
O     6.643000000    -4.164000000     3.649000000
H     6.799000000    -3.220000000     3.627000000
H     6.574000000    -4.416000000     2.728000000
O     4.694000000    -8.982000000     0.830000000
H     5.388000000    -9.086000000     1.482000000
H     4.423000000    -8.068000000     0.913000000
O     1.062000000    -7.764000000     1.456000000
H     1.359000000    -6.857000000     1.379000000
H     0.372000000    -7.734000000     2.119000000
O     1.474000000    -5.209000000     2.369000000
H     1.144000000    -4.538000000     2.967000000
H     2.114000000    -4.750000000     1.825000000
O     7.927000000    -2.764000000    -1.357000000
H     7.016000000    -3.053000000    -1.397000000
H     8.277000000    -2.953000000    -2.228000000
O     7.035000000    -4.486000000     1.004000000
H     6.617000000    -4.100000000     0.235000000
H     7.280000000    -5.369000000     0.726000000
O     8.234000000    -3.459000000    -4.132000000
H     8.844000000    -4.123000000    -4.453000000
H     7.379000000    -3.743000000    -4.455000000
O     0.534000000    -6.560000000    -2.432000000
H     0.725000000    -7.262000000    -1.810000000
H     1.020000000    -5.806000000    -2.098000000
O     3.257000000    -4.605000000    -3.865000000
H     2.925000000    -5.470000000    -4.104000000
H     2.841000000    -4.412000000    -3.024000000
O    -1.183000000    -7.716000000    -4.478000000
H    -0.561000000    -7.195000000    -3.969000000
H    -0.640000000    -8.183000000    -5.114000000
O    -2.025000000    -8.779000000    -1.469000000
H    -2.041000000    -7.930000000    -1.910000000
H    -1.099000000    -8.934000000    -1.282000000
O     3.427000000    -6.771000000    -1.392000000
H     4.209000000    -6.712000000    -1.941000000
H     3.165000000    -5.862000000    -1.249000000
O     5.999000000    -6.768000000    -2.665000000
H     6.335000000    -6.825000000    -3.559000000
H     6.471000000    -7.450000000    -2.187000000
