215
-1449.59675
C    -0.706000000    -0.946000000     5.347000000
H    -1.741000000    -0.889000000     5.021000000
C     0.237000000    -0.018000000     4.960000000
C     1.559000000    -0.253000000     5.233000000
H     2.275000000     0.482000000     4.877000000
C    -0.131000000     1.224000000     4.216000000
O    -1.568000000     1.371000000     4.429000000
H     0.105000000     0.937000000     3.180000000
O     0.673000000     2.391000000     4.623000000
C     0.848000000     3.266000000     3.585000000
C     2.115000000     3.201000000     3.018000000
H     2.775000000     2.527000000     3.559000000
C     2.324000000     3.756000000     1.745000000
O     3.490000000     3.425000000     1.096000000
C     1.311000000     4.515000000     1.117000000
C     1.632000000     5.277000000    -0.177000000
H     1.033000000     6.186000000    -0.087000000
C     1.314000000     4.446000000    -1.400000000
C     0.062000000     4.518000000    -2.094000000
H    -0.721000000     5.166000000    -1.707000000
H     2.687000000     5.556000000    -0.139000000
C     0.077000000     4.591000000     1.729000000
H    -0.717000000     5.158000000     1.250000000
C    -0.132000000     3.975000000     2.947000000
C    -1.562000000     4.094000000     3.477000000
H    -1.888000000     5.112000000     3.254000000
H    -1.625000000     4.007000000     4.564000000
C    -2.446000000     2.985000000     2.801000000
C    -3.324000000     3.262000000     1.725000000
H    -3.558000000     4.294000000     1.476000000
C    -2.348000000     1.693000000     3.343000000
C    -3.083000000     0.667000000     2.706000000
H    -3.014000000    -0.333000000     3.127000000
C    -3.846000000     0.913000000     1.606000000
O    -4.652000000    -0.147000000     1.105000000
C    -4.164000000    -0.734000000    -0.055000000
C    -4.063000000    -2.245000000     0.106000000
C    -3.880000000    -3.060000000    -0.969000000
H    -3.957000000    -2.532000000    -1.916000000
C    -4.067000000    -2.797000000     1.410000000
H    -4.175000000    -2.186000000     2.302000000
O    -4.774000000    -0.247000000    -1.235000000
H    -3.123000000    -0.393000000    -0.157000000
C    -3.957000000     2.191000000     1.115000000
C    -4.885000000     2.431000000    -0.064000000
H    -5.115000000     3.499000000    -0.056000000
H    -5.798000000     1.831000000    -0.051000000
C    -4.149000000     2.110000000    -1.331000000
C    -3.373000000     3.095000000    -2.061000000
H    -3.403000000     4.144000000    -1.775000000
C    -4.135000000     0.802000000    -1.864000000
C    -3.351000000     0.485000000    -2.957000000
H    -3.251000000    -0.563000000    -3.227000000
C    -2.589000000     1.410000000    -3.610000000
O    -1.768000000     0.965000000    -4.589000000
C    -0.336000000     0.732000000    -4.299000000
C     0.218000000    -0.551000000    -4.810000000
C    -0.642000000    -1.666000000    -5.042000000
H    -1.717000000    -1.510000000    -5.075000000
C     1.554000000    -0.718000000    -4.942000000
H     2.321000000     0.008000000    -4.683000000
O     0.471000000     1.854000000    -4.630000000
H    -0.127000000     0.629000000    -3.224000000
C    -2.530000000     2.735000000    -3.146000000
C    -1.652000000     3.752000000    -3.854000000
H    -2.057000000     4.761000000    -3.752000000
H    -1.573000000     3.482000000    -4.909000000
C    -0.207000000     3.747000000    -3.215000000
C     0.745000000     2.812000000    -3.694000000
C     2.018000000     2.741000000    -3.061000000
H     2.690000000     1.941000000    -3.364000000
C     2.239000000     3.570000000    -1.956000000
O     3.374000000     3.458000000    -1.298000000
C     3.403000000     2.653000000    -0.125000000
H     2.384000000     2.249000000    -0.036000000
C     4.294000000     1.435000000    -0.233000000
C     4.530000000     0.678000000     0.882000000
H     4.017000000     0.942000000     1.803000000
C     5.000000000     1.149000000    -1.397000000
H     5.103000000     1.791000000    -2.268000000
C     5.804000000     0.035000000    -1.438000000
O     6.537000000    -0.201000000    -2.583000000
C     6.069000000    -0.712000000    -0.313000000
H     6.705000000    -1.586000000    -0.427000000
C     5.391000000    -0.427000000     0.857000000
O     5.537000000    -1.361000000     1.899000000
C     5.376000000    -0.912000000     3.164000000
C     4.537000000    -1.604000000     4.016000000
H     3.991000000    -2.468000000     3.646000000
C     6.004000000     0.263000000     3.589000000
H     6.650000000     0.870000000     2.960000000
C     5.725000000     0.807000000     4.860000000
H     6.097000000     1.807000000     5.065000000
C     4.838000000     0.124000000     5.700000000
H     4.532000000     0.507000000     6.670000000
C     4.260000000    -1.088000000     5.275000000
O     3.268000000    -1.696000000     5.981000000
C     1.914000000    -1.413000000     5.806000000
C     1.017000000    -2.439000000     6.230000000
H     1.339000000    -3.282000000     6.836000000
C    -0.365000000    -2.129000000     6.093000000
O    -1.292000000    -3.056000000     6.493000000
C    -2.539000000    -3.164000000     5.901000000
C    -2.543000000    -3.715000000     4.602000000
H    -1.570000000    -3.839000000     4.133000000
C    -3.770000000    -3.021000000     6.609000000
H    -3.701000000    -2.728000000     7.653000000
C    -4.968000000    -3.347000000     6.066000000
H    -5.921000000    -3.259000000     6.582000000
C    -4.960000000    -3.864000000     4.723000000
H    -5.796000000    -4.188000000     4.107000000
C    -3.741000000    -4.143000000     4.044000000
O    -3.774000000    -4.753000000     2.793000000
C    -3.791000000    -4.165000000     1.526000000
C    -3.752000000    -5.039000000     0.451000000
H    -3.699000000    -6.122000000     0.527000000
C    -3.708000000    -4.448000000    -0.849000000
O    -3.784000000    -5.237000000    -1.951000000
C    -3.678000000    -4.735000000    -3.205000000
C    -2.423000000    -4.473000000    -3.746000000
H    -1.525000000    -4.707000000    -3.179000000
C    -4.881000000    -4.428000000    -3.884000000
H    -5.819000000    -4.659000000    -3.385000000
C    -4.678000000    -3.808000000    -5.084000000
H    -5.543000000    -3.396000000    -5.597000000
C    -3.411000000    -3.564000000    -5.681000000
H    -3.400000000    -3.145000000    -6.684000000
C    -2.251000000    -3.944000000    -5.041000000
O    -1.012000000    -3.994000000    -5.600000000
C    -0.182000000    -2.917000000    -5.447000000
C     1.224000000    -3.099000000    -5.396000000
H     1.700000000    -4.036000000    -5.673000000
C     2.068000000    -1.973000000    -5.353000000
O     3.419000000    -2.248000000    -5.476000000
C     4.396000000    -1.362000000    -5.328000000
C     4.906000000    -0.615000000    -6.404000000
H     4.608000000    -0.792000000    -7.434000000
C     5.955000000     0.294000000    -6.181000000
H     6.303000000     0.896000000    -7.016000000
C     6.546000000     0.421000000    -4.920000000
H     7.293000000     1.151000000    -4.620000000
C     5.989000000    -0.269000000    -3.870000000
C     4.921000000    -1.111000000    -4.032000000
H     4.554000000    -1.731000000    -3.218000000
C     0.594000000    -3.689000000    -1.151000000
H     0.121000000    -4.667000000    -1.135000000
C    -0.139000000    -2.488000000    -0.973000000
H    -1.211000000    -2.543000000    -0.805000000
C     0.522000000    -1.280000000    -0.920000000
H    -0.124000000    -0.403000000    -0.835000000
C     1.862000000    -1.173000000    -1.154000000
H     2.344000000    -0.201000000    -1.076000000
C     2.582000000    -2.318000000    -1.373000000
H     3.667000000    -2.243000000    -1.360000000
C     1.973000000    -3.585000000    -1.386000000
C     2.806000000    -4.874000000    -1.614000000
O     3.933000000    -4.884000000    -1.236000000
O     2.174000000    -5.928000000    -1.918000000
O     5.888000000    -3.993000000    -2.889000000
H     5.511000000    -4.329000000    -3.702000000
H     5.217000000    -4.160000000    -2.227000000
O     4.384000000    -6.639000000    -3.768000000
H     5.322000000    -6.790000000    -3.655000000
H     4.037000000    -6.612000000    -2.876000000
O     3.331000000    -5.362000000    -7.008000000
H     3.536000000    -5.500000000    -6.083000000
H     3.782000000    -6.075000000    -7.462000000
O     4.063000000    -4.268000000     1.510000000
H     4.078000000    -4.275000000     0.553000000
H     4.868000000    -4.717000000     1.766000000
O    -1.167000000    -7.417000000     1.287000000
H    -0.576000000    -7.652000000     0.571000000
H    -0.758000000    -6.653000000     1.694000000
O     2.426000000    -6.602000000     2.381000000
H     1.655000000    -6.046000000     2.270000000
H     3.089000000    -6.020000000     2.752000000
O     5.027000000    -9.507000000     0.287000000
H     4.626000000    -9.614000000     1.149000000
H     5.084000000    -8.559000000     0.165000000
O    -0.026000000    -5.208000000     2.745000000
H     0.229000000    -4.289000000     2.662000000
H     0.213000000    -5.443000000     3.642000000
O     1.561000000    -3.146000000     1.907000000
H     1.466000000    -2.983000000     0.969000000
H     2.375000000    -3.645000000     1.982000000
O     8.348000000    -3.028000000    -2.144000000
H     7.432000000    -3.242000000    -2.322000000
H     8.825000000    -3.369000000    -2.900000000
O     0.343000000    -6.941000000    -3.376000000
H     0.792000000    -7.139000000    -4.198000000
H     1.020000000    -6.554000000    -2.821000000
O     2.268000000    -8.055000000    -0.125000000
H     2.427000000    -7.530000000     0.660000000
H     2.358000000    -7.436000000    -0.849000000
O     6.107000000    -4.888000000    -5.706000000
H     6.896000000    -5.376000000    -5.471000000
H     5.537000000    -5.538000000    -6.118000000
O    -2.425000000    -7.565000000    -3.084000000
H    -1.525000000    -7.407000000    -3.368000000
H    -2.767000000    -6.694000000    -2.878000000
O     3.217000000    -9.133000000    -3.628000000
H     3.847000000    -8.415000000    -3.554000000
H     3.032000000    -9.195000000    -4.565000000
O     2.134000000   -10.620000000     0.904000000
H     2.451000000    -9.904000000     0.353000000
H     1.934000000   -11.325000000     0.288000000
O    -0.106000000    -8.917000000    -1.348000000
H     0.581000000    -9.193000000    -0.742000000
H     0.308000000    -8.246000000    -1.891000000
O     5.511000000    -7.012000000    -0.538000000
H     6.342000000    -6.576000000    -0.347000000
H     4.931000000    -6.306000000    -0.824000000
O     8.327000000    -5.465000000    -0.540000000
H     9.235000000    -5.532000000    -0.246000000
H     8.282000000    -4.620000000    -0.989000000
