215
-1434.99640
C    -0.898000000    -1.152000000     5.302000000
H    -1.963000000    -1.036000000     5.488000000
C    -0.238000000    -0.138000000     4.586000000
C     1.111000000    -0.356000000     4.312000000
H     1.624000000     0.413000000     3.740000000
C    -0.931000000     1.132000000     4.194000000
O    -2.324000000     1.163000000     4.568000000
H    -0.809000000     1.090000000     3.101000000
O    -0.316000000     2.371000000     4.521000000
C    -0.184000000     3.206000000     3.393000000
C     1.024000000     3.191000000     2.779000000
H     1.902000000     2.725000000     3.221000000
C     1.203000000     3.977000000     1.671000000
O     2.471000000     3.965000000     1.100000000
C     0.138000000     4.679000000     1.139000000
C     0.181000000     5.516000000    -0.191000000
H    -0.603000000     6.271000000    -0.271000000
C     0.122000000     4.686000000    -1.477000000
C    -1.051000000     4.461000000    -2.233000000
H    -1.929000000     5.036000000    -1.951000000
H     1.140000000     6.036000000    -0.133000000
C    -1.091000000     4.632000000     1.744000000
H    -1.989000000     5.128000000     1.386000000
C    -1.351000000     3.881000000     2.868000000
C    -2.794000000     3.698000000     3.375000000
H    -3.323000000     4.579000000     3.006000000
H    -2.919000000     3.751000000     4.459000000
C    -3.476000000     2.462000000     2.836000000
C    -4.136000000     2.414000000     1.616000000
H    -4.210000000     3.355000000     1.076000000
C    -3.277000000     1.264000000     3.551000000
C    -3.709000000     0.047000000     3.027000000
H    -3.403000000    -0.907000000     3.449000000
C    -4.236000000     0.014000000     1.727000000
O    -4.465000000    -1.183000000     1.249000000
C    -3.826000000    -1.683000000     0.030000000
C    -3.513000000    -3.203000000     0.210000000
C    -2.941000000    -3.953000000    -0.844000000
H    -2.831000000    -3.482000000    -1.817000000
C    -3.476000000    -3.790000000     1.522000000
H    -3.851000000    -3.230000000     2.375000000
O    -4.598000000    -1.437000000    -1.218000000
H    -2.865000000    -1.166000000    -0.104000000
C    -4.541000000     1.182000000     1.092000000
C    -5.454000000     1.199000000    -0.147000000
H    -5.959000000     2.167000000    -0.171000000
H    -6.081000000     0.306000000    -0.115000000
C    -4.591000000     1.024000000    -1.396000000
C    -3.968000000     2.091000000    -2.080000000
H    -4.243000000     3.101000000    -1.789000000
C    -4.288000000    -0.301000000    -1.861000000
C    -3.416000000    -0.494000000    -2.889000000
H    -3.230000000    -1.536000000    -3.134000000
C    -2.724000000     0.551000000    -3.435000000
O    -1.673000000     0.358000000    -4.312000000
C    -0.286000000     0.652000000    -3.970000000
C     0.620000000    -0.413000000    -4.521000000
C     0.154000000    -1.718000000    -4.723000000
H    -0.917000000    -1.898000000    -4.663000000
C     1.963000000    -0.090000000    -4.743000000
H     2.257000000     0.939000000    -4.551000000
O     0.046000000     1.955000000    -4.606000000
H     0.044000000     0.811000000    -2.932000000
C    -3.073000000     1.865000000    -3.125000000
C    -2.505000000     3.116000000    -3.868000000
H    -3.259000000     3.906000000    -3.848000000
H    -2.426000000     2.851000000    -4.924000000
C    -1.173000000     3.540000000    -3.277000000
C     0.026000000     2.976000000    -3.765000000
C     1.228000000     3.328000000    -3.118000000
H     2.148000000     2.829000000    -3.412000000
C     1.283000000     4.092000000    -1.970000000
O     2.492000000     4.179000000    -1.251000000
C     2.704000000     3.227000000    -0.164000000
H     1.859000000     2.542000000    -0.321000000
C     4.065000000     2.614000000    -0.183000000
C     4.675000000     2.252000000     1.088000000
H     4.120000000     2.327000000     2.019000000
C     4.809000000     2.434000000    -1.371000000
H     4.355000000     2.744000000    -2.309000000
C     6.068000000     1.821000000    -1.323000000
O     6.896000000     1.714000000    -2.491000000
C     6.569000000     1.386000000    -0.096000000
H     7.483000000     0.800000000    -0.047000000
C     5.892000000     1.582000000     1.066000000
O     6.457000000     1.030000000     2.210000000
C     5.724000000     0.759000000     3.348000000
C     4.831000000    -0.322000000     3.288000000
H     4.715000000    -0.962000000     2.416000000
C     5.903000000     1.482000000     4.499000000
H     6.741000000     2.163000000     4.629000000
C     5.035000000     1.320000000     5.568000000
H     5.133000000     1.913000000     6.473000000
C     4.086000000     0.250000000     5.573000000
H     3.483000000    -0.055000000     6.424000000
C     3.990000000    -0.536000000     4.395000000
O     3.104000000    -1.626000000     4.431000000
C     1.786000000    -1.518000000     4.680000000
C     1.081000000    -2.506000000     5.347000000
H     1.614000000    -3.417000000     5.605000000
C    -0.232000000    -2.306000000     5.625000000
O    -0.904000000    -3.340000000     6.161000000
C    -2.074000000    -3.875000000     5.727000000
C    -2.018000000    -4.556000000     4.545000000
H    -1.041000000    -4.584000000     4.071000000
C    -3.312000000    -3.746000000     6.377000000
H    -3.246000000    -3.344000000     7.385000000
C    -4.495000000    -4.367000000     5.923000000
H    -5.442000000    -4.245000000     6.443000000
C    -4.454000000    -4.917000000     4.629000000
H    -5.328000000    -5.420000000     4.223000000
C    -3.188000000    -5.051000000     3.969000000
O    -3.072000000    -5.778000000     2.889000000
C    -2.995000000    -5.121000000     1.667000000
C    -2.364000000    -5.755000000     0.606000000
H    -2.027000000    -6.781000000     0.725000000
C    -2.432000000    -5.208000000    -0.680000000
O    -1.976000000    -5.817000000    -1.764000000
C    -1.939000000    -5.390000000    -3.057000000
C    -0.749000000    -4.931000000    -3.498000000
H     0.143000000    -4.984000000    -2.880000000
C    -3.063000000    -5.385000000    -3.841000000
H    -3.984000000    -5.717000000    -3.368000000
C    -3.053000000    -4.994000000    -5.171000000
H    -3.979000000    -4.982000000    -5.739000000
C    -1.751000000    -4.540000000    -5.612000000
H    -1.741000000    -4.084000000    -6.599000000
C    -0.633000000    -4.441000000    -4.798000000
O     0.590000000    -4.000000000    -5.272000000
C     1.031000000    -2.693000000    -5.118000000
C     2.309000000    -2.425000000    -5.308000000
H     2.984000000    -3.260000000    -5.480000000
C     2.836000000    -1.145000000    -5.146000000
O     4.200000000    -1.003000000    -5.330000000
C     4.888000000     0.164000000    -5.097000000
C     5.193000000     0.998000000    -6.159000000
H     4.616000000     0.751000000    -7.046000000
C     6.061000000     2.073000000    -6.070000000
H     6.244000000     2.664000000    -6.964000000
C     6.670000000     2.323000000    -4.919000000
H     7.248000000     3.241000000    -4.854000000
C     6.345000000     1.529000000    -3.786000000
C     5.559000000     0.367000000    -3.942000000
H     5.596000000    -0.333000000    -3.111000000
C     1.176000000    -2.476000000    -1.172000000
H     1.139000000    -3.435000000    -1.682000000
C     0.161000000    -1.532000000    -1.210000000
H    -0.775000000    -1.706000000    -1.734000000
C     0.243000000    -0.374000000    -0.405000000
H    -0.538000000     0.360000000    -0.338000000
C     1.353000000    -0.239000000     0.432000000
H     1.426000000     0.597000000     1.124000000
C     2.446000000    -1.152000000     0.336000000
H     3.383000000    -1.102000000     0.884000000
C     2.347000000    -2.349000000    -0.436000000
C     3.354000000    -3.459000000    -0.267000000
O     4.188000000    -3.372000000     0.619000000
O     3.423000000    -4.477000000    -0.986000000
O     6.769000000    -2.261000000    -0.518000000
H     6.639000000    -2.441000000    -1.449000000
H     5.930000000    -2.481000000    -0.112000000
O    -0.436000000    -7.196000000     2.587000000
H     0.468000000    -6.999000000     2.833000000
H    -0.871000000    -6.344000000     2.571000000
O     5.351000000    -4.310000000    -2.972000000
H     4.893000000    -4.931000000    -3.539000000
H     4.726000000    -4.119000000    -2.272000000
O     3.757000000    -5.681000000    -4.820000000
H     3.256000000    -5.667000000    -5.635000000
H     4.226000000    -6.516000000    -4.842000000
O     4.959000000    -4.568000000     2.744000000
H     4.550000000    -4.062000000     2.041000000
H     5.516000000    -3.937000000     3.200000000
O     1.646000000    -6.690000000     0.366000000
H     2.193000000    -6.261000000    -0.292000000
H     1.302000000    -5.972000000     0.897000000
O     3.848000000    -7.169000000     3.442000000
H     3.620000000    -6.921000000     4.338000000
H     4.451000000    -6.485000000     3.150000000
O     7.053000000    -2.788000000     4.011000000
H     7.608000000    -2.435000000     3.316000000
H     6.974000000    -2.072000000     4.642000000
O     5.223000000    -8.492000000    -0.173000000
H     4.472000000    -8.723000000     0.374000000
H     5.251000000    -7.536000000    -0.149000000
O     0.913000000    -4.804000000     2.168000000
H     0.292000000    -4.092000000     2.325000000
H     1.751000000    -4.463000000     2.479000000
O    -0.675000000    -2.477000000     2.038000000
H    -0.184000000    -1.735000000     1.683000000
H    -1.293000000    -2.709000000     1.345000000
O     7.741000000    -5.927000000     3.718000000
H     6.983000000    -5.399000000     3.470000000
H     7.567000000    -6.789000000     3.339000000
O     8.587000000    -1.956000000     1.730000000
H     7.907000000    -1.823000000     1.070000000
H     8.980000000    -2.798000000     1.502000000
O     7.659000000    -5.866000000    -1.844000000
H     7.204000000    -5.899000000    -1.003000000
H     7.025000000    -5.471000000    -2.443000000
O     2.377000000    -6.351000000    -2.381000000
H     2.709000000    -6.309000000    -3.278000000
H     2.870000000    -5.678000000    -1.912000000
O     3.188000000    -9.018000000     1.421000000
H     3.497000000    -8.465000000     2.138000000
H     2.413000000    -8.568000000     1.087000000
O     7.683000000    -3.891000000    -4.341000000
H     7.665000000    -4.668000000    -4.900000000
H     6.951000000    -4.013000000    -3.737000000
O     0.429000000    -8.613000000    -0.940000000
H     0.849000000    -7.860000000    -0.526000000
H     0.402000000    -8.390000000    -1.871000000
O     5.443000000    -5.793000000     0.045000000
H     5.543000000    -5.716000000     0.994000000
H     4.871000000    -5.064000000    -0.195000000
