215
-1441.31207
C    -1.023000000    -0.435000000     4.944000000
H    -1.841000000    -0.879000000     4.383000000
C    -0.665000000     0.915000000     4.916000000
C     0.477000000     1.284000000     5.639000000
H     0.785000000     2.322000000     5.546000000
C    -1.436000000     1.762000000     3.853000000
O    -2.838000000     1.463000000     3.920000000
H    -1.073000000     1.336000000     2.906000000
O    -0.983000000     3.174000000     3.930000000
C    -0.761000000     3.696000000     2.710000000
C     0.542000000     3.805000000     2.357000000
H     1.364000000     3.507000000     3.003000000
C     0.919000000     4.350000000     1.075000000
O     2.262000000     4.287000000     0.667000000
C    -0.119000000     4.851000000     0.256000000
C     0.191000000     5.380000000    -1.137000000
H    -0.475000000     6.215000000    -1.367000000
C     0.366000000     4.272000000    -2.147000000
C    -0.730000000     3.869000000    -2.908000000
H    -1.682000000     4.375000000    -2.773000000
H     1.123000000     5.933000000    -1.002000000
C    -1.454000000     4.764000000     0.687000000
H    -2.199000000     5.167000000     0.006000000
C    -1.739000000     4.156000000     1.917000000
C    -3.188000000     3.909000000     2.241000000
H    -3.762000000     4.712000000     1.775000000
H    -3.374000000     4.100000000     3.300000000
C    -3.669000000     2.545000000     1.897000000
C    -4.326000000     2.392000000     0.621000000
H    -4.429000000     3.181000000    -0.120000000
C    -3.493000000     1.429000000     2.672000000
C    -3.817000000     0.153000000     2.163000000
H    -3.327000000    -0.706000000     2.614000000
C    -4.583000000     0.034000000     0.952000000
O    -4.849000000    -1.199000000     0.529000000
C    -3.906000000    -1.800000000    -0.383000000
C    -3.450000000    -3.184000000     0.092000000
C    -2.697000000    -3.975000000    -0.823000000
H    -2.511000000    -3.633000000    -1.838000000
C    -3.599000000    -3.664000000     1.419000000
H    -4.022000000    -3.092000000     2.241000000
O    -4.413000000    -1.816000000    -1.693000000
H    -2.991000000    -1.192000000    -0.346000000
C    -4.856000000     1.149000000     0.261000000
C    -5.411000000     0.876000000    -1.175000000
H    -5.873000000     1.807000000    -1.513000000
H    -6.171000000     0.093000000    -1.134000000
C    -4.336000000     0.528000000    -2.201000000
C    -3.611000000     1.548000000    -2.807000000
H    -3.749000000     2.585000000    -2.512000000
C    -4.008000000    -0.816000000    -2.510000000
C    -3.061000000    -1.065000000    -3.497000000
H    -2.731000000    -2.096000000    -3.597000000
C    -2.301000000    -0.047000000    -4.027000000
O    -1.269000000    -0.347000000    -4.876000000
C     0.099000000    -0.149000000    -4.466000000
C     0.984000000    -1.337000000    -4.819000000
C     0.503000000    -2.602000000    -5.227000000
H    -0.554000000    -2.717000000    -5.451000000
C     2.350000000    -1.210000000    -4.534000000
H     2.888000000    -0.316000000    -4.231000000
O     0.585000000     1.165000000    -4.992000000
H     0.170000000    -0.180000000    -3.368000000
C    -2.626000000     1.285000000    -3.751000000
C    -1.890000000     2.397000000    -4.585000000
H    -2.476000000     3.305000000    -4.741000000
H    -1.663000000     2.005000000    -5.578000000
C    -0.633000000     2.907000000    -3.888000000
C     0.578000000     2.209000000    -4.065000000
C     1.657000000     2.462000000    -3.169000000
H     2.569000000     1.877000000    -3.250000000
C     1.555000000     3.556000000    -2.306000000
O     2.672000000     3.915000000    -1.613000000
C     2.693000000     3.303000000    -0.297000000
H     2.049000000     2.422000000    -0.436000000
C     4.000000000     2.749000000     0.069000000
C     4.238000000     2.604000000     1.404000000
H     3.485000000     2.832000000     2.153000000
C     4.755000000     2.143000000    -0.880000000
H     4.512000000     2.176000000    -1.939000000
C     5.863000000     1.388000000    -0.510000000
O     6.700000000     0.657000000    -1.430000000
C     6.143000000     1.281000000     0.853000000
H     7.031000000     0.776000000     1.224000000
C     5.365000000     1.874000000     1.781000000
O     5.671000000     1.733000000     3.131000000
C     4.890000000     2.216000000     4.156000000
C     4.052000000     1.335000000     4.849000000
H     4.000000000     0.279000000     4.596000000
C     5.107000000     3.422000000     4.785000000
H     5.783000000     4.109000000     4.283000000
C     4.367000000     3.852000000     5.825000000
H     4.488000000     4.864000000     6.203000000
C     3.447000000     3.043000000     6.456000000
H     2.888000000     3.450000000     7.295000000
C     3.331000000     1.749000000     5.954000000
O     2.586000000     0.836000000     6.666000000
C     1.321000000     0.383000000     6.230000000
C     0.983000000    -0.979000000     6.356000000
H     1.528000000    -1.809000000     6.800000000
C    -0.192000000    -1.346000000     5.630000000
O    -0.645000000    -2.633000000     5.952000000
C    -1.903000000    -3.190000000     5.630000000
C    -2.051000000    -4.040000000     4.547000000
H    -1.124000000    -4.253000000     4.021000000
C    -3.031000000    -2.791000000     6.336000000
H    -2.943000000    -2.064000000     7.140000000
C    -4.292000000    -3.335000000     5.993000000
H    -5.089000000    -3.154000000     6.709000000
C    -4.401000000    -4.262000000     4.932000000
H    -5.373000000    -4.719000000     4.766000000
C    -3.298000000    -4.549000000     4.144000000
O    -3.338000000    -5.374000000     3.030000000
C    -3.107000000    -4.901000000     1.742000000
C    -2.541000000    -5.734000000     0.818000000
H    -2.125000000    -6.676000000     1.164000000
C    -2.187000000    -5.222000000    -0.380000000
O    -1.394000000    -6.047000000    -1.167000000
C    -1.443000000    -5.953000000    -2.547000000
C    -0.419000000    -5.376000000    -3.288000000
H     0.569000000    -5.183000000    -2.878000000
C    -2.579000000    -6.394000000    -3.175000000
H    -3.442000000    -6.871000000    -2.717000000
C    -2.709000000    -6.264000000    -4.539000000
H    -3.576000000    -6.630000000    -5.082000000
C    -1.630000000    -5.746000000    -5.278000000
H    -1.675000000    -5.677000000    -6.362000000
C    -0.505000000    -5.233000000    -4.666000000
O     0.622000000    -4.918000000    -5.389000000
C     1.302000000    -3.726000000    -5.198000000
C     2.711000000    -3.599000000    -4.988000000
H     3.390000000    -4.447000000    -4.972000000
C     3.216000000    -2.294000000    -4.723000000
O     4.588000000    -2.240000000    -4.484000000
C     5.396000000    -1.190000000    -4.223000000
C     5.647000000    -0.300000000    -5.241000000
H     5.293000000    -0.508000000    -6.248000000
C     6.368000000     0.871000000    -4.949000000
H     6.717000000     1.475000000    -5.782000000
C     6.872000000     1.178000000    -3.695000000
H     7.493000000     2.037000000    -3.455000000
C     6.449000000     0.311000000    -2.688000000
C     5.715000000    -0.805000000    -2.911000000
H     5.428000000    -1.494000000    -2.121000000
C     2.408000000    -2.437000000    -1.079000000
H     2.680000000    -3.299000000    -1.684000000
C     1.270000000    -1.812000000    -1.365000000
H     0.799000000    -2.108000000    -2.299000000
C     0.798000000    -0.767000000    -0.510000000
H    -0.103000000    -0.266000000    -0.829000000
C     1.490000000    -0.445000000     0.617000000
H     1.199000000     0.300000000     1.353000000
C     2.683000000    -1.158000000     0.902000000
H     3.214000000    -0.987000000     1.835000000
C     3.195000000    -2.128000000     0.049000000
C     4.359000000    -3.062000000     0.349000000
O     4.956000000    -2.937000000     1.424000000
O     4.577000000    -4.103000000    -0.326000000
O     2.826000000    -6.028000000     3.989000000
H     2.732000000    -5.090000000     3.820000000
H     3.502000000    -6.082000000     4.666000000
O     2.814000000    -3.408000000     2.987000000
H     2.022000000    -3.603000000     2.487000000
H     3.498000000    -3.309000000     2.324000000
O     6.411000000    -5.648000000    -1.537000000
H     6.711000000    -5.285000000    -2.371000000
H     5.680000000    -5.086000000    -1.280000000
O     8.176000000    -7.217000000     2.197000000
H     7.318000000    -6.848000000     1.988000000
H     8.490000000    -7.578000000     1.367000000
O     1.833000000    -7.985000000    -2.474000000
H     1.072000000    -8.096000000    -1.905000000
H     2.250000000    -7.182000000    -2.163000000
O     4.129000000    -7.656000000     1.389000000
H     4.214000000    -6.827000000     1.860000000
H     4.519000000    -8.305000000     1.973000000
O     6.074000000    -2.004000000     3.647000000
H     5.751000000    -2.309000000     2.799000000
H     6.802000000    -2.591000000     3.851000000
O     5.848000000    -8.546000000    -2.131000000
H     5.677000000    -7.659000000    -1.816000000
H     6.436000000    -8.924000000    -1.477000000
O     0.796000000    -4.607000000     1.412000000
H     0.546000000    -4.752000000     0.499000000
H     0.722000000    -5.470000000     1.820000000
O     7.695000000    -2.763000000    -0.810000000
H     8.447000000    -3.120000000    -0.337000000
H     7.046000000    -2.588000000    -0.129000000
O     9.398000000    -3.883000000     1.110000000
H     9.348000000    -4.786000000     0.795000000
H    10.303000000    -3.783000000     1.406000000
O     9.416000000     0.187000000    -0.649000000
H     8.493000000     0.200000000    -0.899000000
H     9.744000000    -0.647000000    -0.986000000
O     3.005000000    -6.202000000    -0.827000000
H     3.619000000    -5.479000000    -0.698000000
H     3.345000000    -6.907000000    -0.277000000
O    10.019000000    -4.839000000    -2.043000000
H     9.191000000    -4.378000000    -2.181000000
H     9.836000000    -5.743000000    -2.297000000
O     4.146000000    -2.549000000     5.565000000
H     3.605000000    -2.682000000     4.787000000
H     5.007000000    -2.312000000     5.221000000
O     5.995000000    -5.427000000     1.961000000
H     6.199000000    -4.753000000     2.611000000
H     5.740000000    -4.936000000     1.180000000
O     8.408000000    -3.546000000     3.870000000
H     8.782000000    -3.352000000     3.011000000
H     8.593000000    -4.475000000     4.008000000
O     1.741000000    -8.511000000     1.166000000
H     1.420000000    -8.012000000     1.917000000
H     2.673000000    -8.299000000     1.119000000
O     7.726000000    -3.619000000    -3.398000000
H     7.729000000    -3.102000000    -4.203000000
H     7.739000000    -2.968000000    -2.696000000
