215
-1446.14249
C    -1.166000000     0.635000000     5.110000000
H    -2.215000000     0.854000000     5.288000000
C    -0.365000000     1.324000000     4.236000000
C     1.000000000     1.013000000     4.118000000
H     1.644000000     1.542000000     3.420000000
C    -0.903000000     2.446000000     3.274000000
O    -2.184000000     2.795000000     3.620000000
H    -0.900000000     2.160000000     2.212000000
O     0.060000000     3.563000000     3.101000000
C     0.237000000     4.157000000     1.873000000
C     1.463000000     4.015000000     1.373000000
H     2.215000000     3.477000000     1.944000000
C     1.755000000     4.323000000     0.062000000
O     3.000000000     4.027000000    -0.371000000
C     0.762000000     4.798000000    -0.812000000
C     1.008000000     5.023000000    -2.288000000
H     0.310000000     5.834000000    -2.507000000
C     0.718000000     3.773000000    -3.074000000
C    -0.524000000     3.529000000    -3.670000000
H    -1.322000000     4.266000000    -3.655000000
H     2.027000000     5.372000000    -2.464000000
C    -0.561000000     4.924000000    -0.327000000
H    -1.329000000     5.449000000    -0.890000000
C    -0.836000000     4.635000000     1.029000000
C    -2.191000000     4.819000000     1.588000000
H    -2.637000000     5.628000000     1.005000000
H    -2.087000000     5.177000000     2.614000000
C    -3.079000000     3.650000000     1.606000000
C    -3.897000000     3.326000000     0.524000000
H    -3.953000000     4.017000000    -0.313000000
C    -3.102000000     2.757000000     2.636000000
C    -3.704000000     1.502000000     2.501000000
H    -3.668000000     0.815000000     3.343000000
C    -4.532000000     1.259000000     1.464000000
O    -4.963000000    -0.096000000     1.273000000
C    -4.102000000    -0.959000000     0.473000000
C    -3.779000000    -2.312000000     1.130000000
C    -3.161000000    -3.347000000     0.440000000
H    -2.983000000    -3.284000000    -0.630000000
C    -4.182000000    -2.509000000     2.451000000
H    -4.639000000    -1.678000000     2.984000000
O    -4.758000000    -1.129000000    -0.808000000
H    -3.091000000    -0.552000000     0.327000000
C    -4.613000000     2.143000000     0.403000000
C    -5.226000000     1.761000000    -0.912000000
H    -5.449000000     2.723000000    -1.377000000
H    -6.177000000     1.231000000    -0.831000000
C    -4.343000000     0.983000000    -1.916000000
C    -3.705000000     1.705000000    -2.901000000
H    -3.743000000     2.786000000    -3.015000000
C    -4.165000000    -0.386000000    -1.814000000
C    -3.276000000    -1.016000000    -2.711000000
H    -2.842000000    -2.002000000    -2.567000000
C    -2.699000000    -0.316000000    -3.740000000
O    -1.758000000    -0.963000000    -4.459000000
C    -0.337000000    -0.821000000    -4.151000000
C     0.453000000    -2.126000000    -4.276000000
C    -0.173000000    -3.407000000    -4.181000000
H    -1.259000000    -3.439000000    -4.203000000
C     1.860000000    -2.054000000    -4.171000000
H     2.319000000    -1.080000000    -4.026000000
O     0.302000000     0.142000000    -5.102000000
H    -0.108000000    -0.539000000    -3.113000000
C    -2.863000000     1.101000000    -3.828000000
C    -2.028000000     1.896000000    -4.822000000
H    -2.654000000     2.766000000    -5.032000000
H    -1.881000000     1.329000000    -5.743000000
C    -0.668000000     2.261000000    -4.303000000
C     0.414000000     1.386000000    -4.501000000
C     1.619000000     1.677000000    -3.974000000
H     2.470000000     1.006000000    -4.059000000
C     1.789000000     2.819000000    -3.200000000
O     3.019000000     3.043000000    -2.557000000
C     3.134000000     2.765000000    -1.115000000
H     2.388000000     2.024000000    -0.791000000
C     4.460000000     2.096000000    -0.811000000
C     4.978000000     2.017000000     0.532000000
H     4.407000000     2.434000000     1.358000000
C     5.133000000     1.450000000    -1.841000000
H     4.786000000     1.435000000    -2.871000000
C     6.288000000     0.723000000    -1.550000000
O     6.978000000     0.089000000    -2.570000000
C     6.839000000     0.616000000    -0.273000000
H     7.829000000     0.193000000    -0.122000000
C     6.128000000     1.202000000     0.770000000
O     6.582000000     0.917000000     2.065000000
C     5.787000000     1.161000000     3.147000000
C     4.899000000     0.245000000     3.702000000
H     4.951000000    -0.777000000     3.334000000
C     5.898000000     2.365000000     3.810000000
H     6.637000000     3.109000000     3.521000000
C     4.988000000     2.710000000     4.836000000
H     4.982000000     3.709000000     5.264000000
C     3.981000000     1.860000000     5.150000000
H     3.303000000     2.167000000     5.943000000
C     3.904000000     0.630000000     4.570000000
O     2.902000000    -0.246000000     4.904000000
C     1.573000000     0.055000000     4.943000000
C     0.761000000    -0.594000000     5.880000000
H     1.094000000    -1.344000000     6.592000000
C    -0.561000000    -0.317000000     5.977000000
O    -1.317000000    -0.909000000     6.949000000
C    -2.389000000    -1.647000000     6.732000000
C    -2.668000000    -2.278000000     5.531000000
H    -1.981000000    -2.203000000     4.692000000
C    -3.309000000    -1.628000000     7.816000000
H    -3.162000000    -1.125000000     8.769000000
C    -4.454000000    -2.401000000     7.712000000
H    -5.179000000    -2.491000000     8.516000000
C    -4.699000000    -3.083000000     6.539000000
H    -5.528000000    -3.764000000     6.366000000
C    -3.828000000    -3.092000000     5.492000000
O    -4.060000000    -3.915000000     4.448000000
C    -3.806000000    -3.720000000     3.094000000
C    -3.107000000    -4.712000000     2.452000000
H    -2.652000000    -5.578000000     2.925000000
C    -2.905000000    -4.596000000     1.030000000
O    -2.109000000    -5.570000000     0.493000000
C    -2.107000000    -5.928000000    -0.819000000
C    -0.965000000    -5.747000000    -1.590000000
H    -0.033000000    -5.348000000    -1.198000000
C    -3.285000000    -6.425000000    -1.492000000
H    -4.220000000    -6.532000000    -0.948000000
C    -3.266000000    -6.698000000    -2.860000000
H    -4.179000000    -6.973000000    -3.382000000
C    -2.095000000    -6.439000000    -3.570000000
H    -2.065000000    -6.564000000    -4.650000000
C    -0.970000000    -6.015000000    -2.952000000
O     0.106000000    -5.801000000    -3.806000000
C     0.631000000    -4.550000000    -4.139000000
C     2.021000000    -4.415000000    -4.275000000
H     2.619000000    -5.318000000    -4.363000000
C     2.638000000    -3.208000000    -4.310000000
O     4.039000000    -3.172000000    -4.426000000
C     4.639000000    -1.920000000    -4.593000000
C     4.566000000    -1.188000000    -5.748000000
H     3.929000000    -1.572000000    -6.540000000
C     5.295000000    -0.033000000    -5.896000000
H     5.161000000     0.542000000    -6.809000000
C     6.178000000     0.348000000    -4.849000000
H     6.727000000     1.282000000    -4.935000000
C     6.279000000    -0.369000000    -3.684000000
C     5.470000000    -1.513000000    -3.572000000
H     5.400000000    -2.020000000    -2.613000000
C     2.285000000    -2.918000000    -0.907000000
H     2.206000000    -3.905000000    -1.356000000
C     1.123000000    -2.089000000    -0.892000000
H     0.258000000    -2.423000000    -1.460000000
C     1.155000000    -0.773000000    -0.394000000
H     0.312000000    -0.130000000    -0.469000000
C     2.251000000    -0.391000000     0.427000000
H     2.345000000     0.607000000     0.846000000
C     3.375000000    -1.257000000     0.525000000
H     4.249000000    -0.922000000     1.078000000
C     3.404000000    -2.473000000    -0.148000000
C     4.678000000    -3.262000000    -0.002000000
O     5.701000000    -2.866000000     0.469000000
O     4.651000000    -4.493000000    -0.309000000
O     6.670000000    -5.762000000     2.714000000
H     6.764000000    -6.711000000     2.637000000
H     6.702000000    -5.443000000     1.812000000
O     6.852000000    -3.908000000    -5.610000000
H     6.350000000    -3.686000000    -6.394000000
H     6.228000000    -3.813000000    -4.891000000
O     7.992000000    -5.300000000    -2.651000000
H     7.879000000    -4.375000000    -2.867000000
H     8.026000000    -5.742000000    -3.499000000
O     3.874000000    -6.368000000    -1.790000000
H     4.147000000    -6.180000000    -2.688000000
H     4.308000000    -5.697000000    -1.263000000
O     6.710000000    -8.327000000     1.014000000
H     6.765000000    -7.549000000     0.458000000
H     7.619000000    -8.606000000     1.125000000
O     5.648000000    -6.116000000     5.192000000
H     6.155000000    -5.922000000     4.404000000
H     6.208000000    -6.705000000     5.697000000
O     3.875000000    -5.258000000     2.140000000
H     4.078000000    -5.112000000     1.216000000
H     4.720000000    -5.193000000     2.585000000
O     6.601000000    -2.350000000     2.905000000
H     6.134000000    -2.426000000     2.072000000
H     7.206000000    -1.620000000     2.774000000
O     2.764000000    -9.254000000    -2.570000000
H     2.883000000    -8.346000000    -2.291000000
H     1.857000000    -9.458000000    -2.341000000
O     1.874000000    -3.429000000     3.163000000
H     2.557000000    -4.056000000     2.923000000
H     1.608000000    -3.036000000     2.332000000
O     8.284000000    -2.716000000    -2.507000000
H     8.131000000    -2.499000000    -1.587000000
H     8.630000000    -1.909000000    -2.889000000
O     8.339000000    -7.888000000    -1.405000000
H     7.614000000    -8.299000000    -1.876000000
H     8.387000000    -7.002000000    -1.764000000
O     9.457000000    -2.814000000     4.265000000
H     9.154000000    -2.754000000     3.358000000
H     9.532000000    -1.904000000     4.553000000
O     8.352000000    -2.411000000     0.242000000
H     8.641000000    -3.102000000     0.837000000
H     7.399000000    -2.503000000     0.213000000
O     2.199000000    -7.478000000    -0.069000000
H     2.955000000    -7.234000000    -0.602000000
H     2.057000000    -6.724000000     0.504000000
O     5.157000000    -3.613000000     5.061000000
H     5.613000000    -3.404000000     4.246000000
H     5.129000000    -4.569000000     5.082000000
O     6.870000000    -5.708000000    -0.085000000
H     6.274000000    -4.959000000    -0.100000000
H     7.250000000    -5.730000000    -0.963000000
O     9.485000000    -4.452000000     1.493000000
H     9.761000000    -4.809000000     2.337000000
H     9.364000000    -5.220000000     0.936000000
O    10.164000000    -0.391000000    -0.127000000
H    10.296000000    -0.587000000    -1.055000000
H     9.673000000    -1.141000000     0.208000000
