215
-1465.25787
C     0.441000000     0.208000000     5.491000000
H    -0.463000000    -0.392000000     5.426000000
C     0.565000000     1.409000000     4.742000000
C     1.776000000     2.130000000     4.864000000
H     1.927000000     3.051000000     4.306000000
C    -0.562000000     2.030000000     3.855000000
O    -1.860000000     1.767000000     4.392000000
H    -0.509000000     1.653000000     2.823000000
O    -0.325000000     3.473000000     3.779000000
C    -0.602000000     3.978000000     2.503000000
C     0.506000000     4.341000000     1.731000000
H     1.483000000     4.443000000     2.196000000
C     0.310000000     4.587000000     0.402000000
O     1.405000000     4.624000000    -0.473000000
C    -0.989000000     4.729000000    -0.167000000
C    -1.253000000     5.120000000    -1.660000000
H    -2.224000000     5.608000000    -1.555000000
C    -1.251000000     3.977000000    -2.680000000
C    -2.452000000     3.416000000    -3.065000000
H    -3.364000000     3.795000000    -2.612000000
H    -0.500000000     5.839000000    -1.990000000
C    -2.073000000     4.476000000     0.596000000
H    -3.107000000     4.444000000     0.263000000
C    -1.906000000     4.128000000     1.955000000
C    -3.117000000     3.820000000     2.770000000
H    -3.972000000     4.379000000     2.383000000
H    -2.979000000     4.108000000     3.814000000
C    -3.427000000     2.349000000     2.675000000
C    -4.363000000     1.928000000     1.696000000
H    -4.822000000     2.706000000     1.090000000
C    -2.778000000     1.414000000     3.451000000
C    -3.159000000     0.074000000     3.376000000
H    -2.655000000    -0.612000000     4.053000000
C    -4.071000000    -0.353000000     2.432000000
O    -4.094000000    -1.723000000     2.263000000
C    -3.230000000    -2.143000000     1.129000000
C    -2.514000000    -3.433000000     1.396000000
C    -2.357000000    -4.427000000     0.382000000
H    -2.783000000    -4.383000000    -0.617000000
C    -1.836000000    -3.569000000     2.612000000
H    -1.762000000    -2.722000000     3.289000000
O    -4.070000000    -2.297000000     0.003000000
H    -2.601000000    -1.289000000     0.837000000
C    -4.631000000     0.566000000     1.554000000
C    -5.477000000     0.161000000     0.360000000
H    -6.301000000     0.847000000     0.155000000
H    -5.916000000    -0.766000000     0.735000000
C    -4.822000000    -0.139000000    -0.876000000
C    -4.691000000     0.797000000    -1.955000000
H    -5.150000000     1.774000000    -1.825000000
C    -4.182000000    -1.377000000    -0.999000000
C    -3.558000000    -1.728000000    -2.173000000
H    -2.986000000    -2.651000000    -2.121000000
C    -3.413000000    -0.846000000    -3.184000000
O    -2.565000000    -1.189000000    -4.250000000
C    -1.205000000    -0.670000000    -4.159000000
C    -0.127000000    -1.670000000    -4.454000000
C    -0.355000000    -3.021000000    -4.305000000
H    -1.270000000    -3.369000000    -3.833000000
C     1.052000000    -1.220000000    -5.053000000
H     1.150000000    -0.160000000    -5.272000000
O    -1.060000000     0.503000000    -5.044000000
H    -1.031000000    -0.338000000    -3.125000000
C    -4.006000000     0.419000000    -3.152000000
C    -3.732000000     1.449000000    -4.191000000
H    -4.536000000     2.183000000    -4.282000000
H    -3.648000000     0.940000000    -5.154000000
C    -2.450000000     2.273000000    -3.937000000
C    -1.189000000     1.746000000    -4.430000000
C     0.024000000     2.258000000    -3.966000000
H     0.994000000     1.866000000    -4.260000000
C     0.007000000     3.400000000    -3.187000000
O     1.235000000     3.731000000    -2.699000000
C     1.567000000     3.410000000    -1.309000000
H     0.893000000     2.612000000    -0.964000000
C     2.955000000     2.853000000    -1.150000000
C     3.590000000     2.623000000     0.095000000
H     3.054000000     2.849000000     1.013000000
C     3.708000000     2.528000000    -2.286000000
H     3.357000000     2.649000000    -3.307000000
C     4.903000000     1.842000000    -2.205000000
O     5.634000000     1.379000000    -3.238000000
C     5.408000000     1.442000000    -0.981000000
H     6.201000000     0.704000000    -0.895000000
C     4.792000000     1.916000000     0.178000000
O     5.299000000     1.526000000     1.411000000
C     5.348000000     2.370000000     2.420000000
C     4.724000000     1.921000000     3.553000000
H     4.270000000     0.933000000     3.587000000
C     5.920000000     3.634000000     2.354000000
H     6.280000000     3.962000000     1.382000000
C     5.809000000     4.434000000     3.516000000
H     6.220000000     5.437000000     3.598000000
C     5.062000000     4.005000000     4.555000000
H     4.988000000     4.690000000     5.396000000
C     4.580000000     2.725000000     4.641000000
O     4.007000000     2.311000000     5.822000000
C     2.774000000     1.669000000     5.688000000
C     2.568000000     0.516000000     6.491000000
H     3.384000000     0.280000000     7.168000000
C     1.421000000    -0.221000000     6.308000000
O     1.280000000    -1.335000000     6.955000000
C     0.519000000    -2.445000000     6.700000000
C     0.707000000    -3.152000000     5.465000000
H     1.487000000    -2.793000000     4.799000000
C    -0.487000000    -2.915000000     7.579000000
H    -0.632000000    -2.367000000     8.506000000
C    -1.298000000    -3.959000000     7.197000000
H    -2.081000000    -4.303000000     7.869000000
C    -1.119000000    -4.620000000     5.943000000
H    -1.760000000    -5.478000000     5.758000000
C    -0.161000000    -4.166000000     5.033000000
O    -0.035000000    -4.777000000     3.803000000
C    -0.974000000    -4.681000000     2.767000000
C    -0.912000000    -5.696000000     1.853000000
H    -0.147000000    -6.449000000     2.024000000
C    -1.663000000    -5.615000000     0.653000000
O    -1.568000000    -6.595000000    -0.275000000
C    -1.659000000    -6.382000000    -1.613000000
C    -0.642000000    -5.731000000    -2.297000000
H     0.182000000    -5.260000000    -1.767000000
C    -2.720000000    -7.059000000    -2.211000000
H    -3.549000000    -7.471000000    -1.641000000
C    -2.642000000    -7.093000000    -3.625000000
H    -3.408000000    -7.596000000    -4.209000000
C    -1.617000000    -6.478000000    -4.354000000
H    -1.516000000    -6.536000000    -5.435000000
C    -0.577000000    -5.855000000    -3.693000000
O     0.434000000    -5.325000000    -4.409000000
C     0.657000000    -3.969000000    -4.627000000
C     1.870000000    -3.483000000    -5.116000000
H     2.651000000    -4.200000000    -5.355000000
C     2.041000000    -2.134000000    -5.436000000
O     3.271000000    -1.727000000    -5.834000000
C     3.827000000    -0.453000000    -5.751000000
C     4.247000000     0.164000000    -6.865000000
H     3.991000000    -0.175000000    -7.866000000
C     4.928000000     1.416000000    -6.817000000
H     5.153000000     1.880000000    -7.774000000
C     5.337000000     1.916000000    -5.591000000
H     5.911000000     2.839000000    -5.605000000
C     5.123000000     1.147000000    -4.440000000
C     4.298000000     0.005000000    -4.520000000
H     4.002000000    -0.583000000    -3.655000000
C     2.175000000    -0.377000000    -0.856000000
H     2.925000000    -0.386000000    -1.643000000
C     0.947000000     0.267000000    -1.050000000
H     0.626000000     0.567000000    -2.044000000
C     0.075000000     0.356000000    -0.022000000
H    -0.954000000     0.739000000    -0.094000000
C     0.402000000    -0.133000000     1.202000000
H    -0.284000000    -0.087000000     2.044000000
C     1.623000000    -0.738000000     1.410000000
H     1.837000000    -1.110000000     2.409000000
C     2.543000000    -0.918000000     0.407000000
C     3.893000000    -1.603000000     0.605000000
O     4.035000000    -2.300000000     1.619000000
O     4.715000000    -1.668000000    -0.325000000
O     4.099000000    -3.459000000     4.202000000
H     4.812000000    -4.025000000     3.905000000
H     3.580000000    -3.294000000     3.415000000
O     8.964000000    -1.775000000    -1.097000000
H     9.674000000    -2.290000000    -0.713000000
H     8.305000000    -1.723000000    -0.405000000
O     6.260000000    -2.127000000    -2.325000000
H     5.796000000    -1.910000000    -1.517000000
H     7.171000000    -1.895000000    -2.149000000
O     5.809000000    -1.015000000     3.074000000
H     5.686000000    -0.200000000     2.588000000
H     5.110000000    -1.589000000     2.760000000
O     8.826000000     1.521000000    -0.943000000
H     8.874000000     1.689000000    -0.002000000
H     9.247000000     0.669000000    -1.056000000
O     4.678000000    -4.804000000     0.650000000
H     4.493000000    -3.882000000     0.826000000
H     4.289000000    -4.967000000    -0.209000000
O     7.533000000    -5.598000000     1.017000000
H     7.276000000    -6.495000000     0.807000000
H     6.910000000    -5.051000000     0.539000000
O     3.619000000    -6.484000000     2.665000000
H     4.033000000    -5.792000000     2.150000000
H     4.084000000    -7.282000000     2.412000000
O     6.681000000    -4.824000000     4.016000000
H     7.238000000    -5.109000000     3.291000000
H     6.446000000    -5.634000000     4.469000000
O     3.791000000    -5.828000000    -2.083000000
H     3.462000000    -4.954000000    -2.293000000
H     3.010000000    -6.326000000    -1.839000000
O     1.798000000    -7.211000000    -0.634000000
H     1.617000000    -7.705000000    -1.433000000
H     0.955000000    -7.170000000    -0.182000000
O     6.437000000    -5.245000000    -2.059000000
H     6.520000000    -4.299000000    -1.936000000
H     5.499000000    -5.415000000    -1.972000000
O     5.336000000    -3.772000000    -5.136000000
H     4.615000000    -3.177000000    -5.340000000
H     5.755000000    -3.388000000    -4.367000000
O     4.356000000    -2.113000000     6.764000000
H     4.030000000    -2.607000000     7.517000000
H     4.448000000    -2.767000000     6.071000000
O     3.997000000    -6.018000000     5.709000000
H     4.798000000    -6.377000000     5.326000000
H     3.463000000    -5.767000000     4.955000000
O     5.505000000    -0.151000000     5.584000000
H     5.738000000    -0.589000000     4.766000000
H     4.934000000    -0.774000000     6.035000000
O     7.985000000    -1.872000000     5.250000000
H     7.083000000    -2.011000000     5.539000000
H     8.155000000    -2.591000000     4.641000000
O     7.151000000    -1.867000000     0.892000000
H     6.238000000    -1.698000000     0.662000000
H     7.194000000    -1.709000000     1.835000000
O     2.844000000    -3.374000000    -1.803000000
H     3.444000000    -2.834000000    -1.288000000
H     2.042000000    -2.854000000    -1.858000000
