215
-1423.08493
C    -0.683000000    -0.037000000     4.934000000
H    -1.745000000    -0.272000000     4.941000000
C    -0.106000000     1.049000000     4.238000000
C     1.256000000     1.382000000     4.336000000
H     1.651000000     2.228000000     3.780000000
C    -0.948000000     1.877000000     3.262000000
O    -2.360000000     1.876000000     3.649000000
H    -0.745000000     1.524000000     2.240000000
O    -0.551000000     3.304000000     3.368000000
C    -0.760000000     4.159000000     2.285000000
C     0.463000000     4.501000000     1.682000000
H     1.340000000     4.344000000     2.304000000
C     0.530000000     4.858000000     0.336000000
O     1.765000000     4.889000000    -0.277000000
C    -0.647000000     4.923000000    -0.409000000
C    -0.634000000     5.262000000    -1.894000000
H    -1.560000000     5.780000000    -2.156000000
C    -0.428000000     4.121000000    -2.795000000
C    -1.576000000     3.501000000    -3.277000000
H    -2.551000000     3.904000000    -3.018000000
H     0.226000000     5.901000000    -2.108000000
C    -1.880000000     4.744000000     0.207000000
H    -2.772000000     4.514000000    -0.370000000
C    -2.007000000     4.305000000     1.543000000
C    -3.411000000     3.867000000     2.145000000
H    -4.137000000     4.589000000     1.766000000
H    -3.359000000     3.971000000     3.231000000
C    -3.681000000     2.393000000     1.819000000
C    -4.521000000     2.010000000     0.811000000
H    -5.127000000     2.755000000     0.302000000
C    -3.137000000     1.454000000     2.669000000
C    -3.493000000     0.073000000     2.531000000
H    -3.220000000    -0.686000000     3.259000000
C    -4.327000000    -0.285000000     1.486000000
O    -4.589000000    -1.653000000     1.255000000
C    -3.646000000    -2.352000000     0.388000000
C    -3.083000000    -3.657000000     1.010000000
C    -2.267000000    -4.479000000     0.188000000
H    -1.943000000    -4.019000000    -0.742000000
C    -3.307000000    -4.133000000     2.340000000
H    -3.929000000    -3.579000000     3.039000000
O    -4.267000000    -2.555000000    -0.846000000
H    -2.796000000    -1.661000000     0.293000000
C    -4.796000000     0.658000000     0.619000000
C    -5.489000000     0.212000000    -0.600000000
H    -6.178000000     0.969000000    -0.979000000
H    -6.103000000    -0.638000000    -0.297000000
C    -4.539000000    -0.199000000    -1.696000000
C    -4.060000000     0.796000000    -2.538000000
H    -4.276000000     1.847000000    -2.362000000
C    -4.094000000    -1.547000000    -1.847000000
C    -3.294000000    -1.862000000    -2.962000000
H    -2.880000000    -2.861000000    -3.072000000
C    -2.818000000    -0.883000000    -3.785000000
O    -1.712000000    -1.147000000    -4.623000000
C    -0.380000000    -0.693000000    -4.253000000
C     0.665000000    -1.741000000    -4.526000000
C     0.370000000    -3.118000000    -4.385000000
H    -0.601000000    -3.486000000    -4.064000000
C     1.970000000    -1.324000000    -4.732000000
H     2.219000000    -0.266000000    -4.731000000
O    -0.010000000     0.597000000    -4.885000000
H    -0.539000000    -0.526000000    -3.177000000
C    -3.204000000     0.451000000    -3.603000000
C    -2.670000000     1.559000000    -4.470000000
H    -3.501000000     2.258000000    -4.587000000
H    -2.588000000     1.268000000    -5.519000000
C    -1.450000000     2.328000000    -3.988000000
C    -0.187000000     1.825000000    -4.213000000
C     0.934000000     2.460000000    -3.784000000
H     1.927000000     2.036000000    -3.915000000
C     0.835000000     3.574000000    -3.029000000
O     1.985000000     4.058000000    -2.434000000
C     2.234000000     3.764000000    -0.979000000
H     1.612000000     2.943000000    -0.592000000
C     3.724000000     3.369000000    -0.727000000
C     4.203000000     3.616000000     0.550000000
H     3.629000000     4.207000000     1.259000000
C     4.388000000     2.526000000    -1.603000000
H     4.058000000     2.295000000    -2.612000000
C     5.601000000     1.947000000    -1.231000000
O     6.312000000     1.183000000    -2.188000000
C     6.126000000     2.256000000     0.043000000
H     7.071000000     1.942000000     0.478000000
C     5.439000000     3.108000000     0.923000000
O     6.012000000     3.460000000     2.116000000
C     5.286000000     3.331000000     3.317000000
C     4.765000000     2.098000000     3.722000000
H     4.974000000     1.196000000     3.152000000
C     5.120000000     4.465000000     4.086000000
H     5.594000000     5.395000000     3.784000000
C     4.206000000     4.463000000     5.181000000
H     4.145000000     5.358000000     5.794000000
C     3.656000000     3.231000000     5.614000000
H     3.122000000     3.120000000     6.554000000
C     3.916000000     2.058000000     4.860000000
O     3.403000000     0.926000000     5.362000000
C     2.050000000     0.630000000     5.108000000
C     1.512000000    -0.451000000     5.694000000
H     2.092000000    -1.049000000     6.392000000
C     0.182000000    -0.878000000     5.564000000
O    -0.171000000    -1.907000000     6.334000000
C    -1.276000000    -2.713000000     6.226000000
C    -1.368000000    -3.721000000     5.207000000
H    -0.597000000    -3.778000000     4.443000000
C    -2.373000000    -2.527000000     7.081000000
H    -2.276000000    -1.792000000     7.876000000
C    -3.524000000    -3.367000000     6.980000000
H    -4.358000000    -3.117000000     7.630000000
C    -3.590000000    -4.295000000     5.931000000
H    -4.475000000    -4.925000000     5.983000000
C    -2.531000000    -4.538000000     5.136000000
O    -2.674000000    -5.490000000     4.192000000
C    -2.613000000    -5.246000000     2.857000000
C    -1.770000000    -5.992000000     2.007000000
H    -1.287000000    -6.871000000     2.426000000
C    -1.661000000    -5.667000000     0.648000000
O    -0.696000000    -6.311000000    -0.061000000
C    -0.726000000    -6.353000000    -1.397000000
C     0.203000000    -5.684000000    -2.143000000
H     0.980000000    -5.104000000    -1.652000000
C    -1.801000000    -7.044000000    -1.978000000
H    -2.632000000    -7.473000000    -1.424000000
C    -1.875000000    -7.121000000    -3.330000000
H    -2.737000000    -7.633000000    -3.751000000
C    -0.887000000    -6.534000000    -4.094000000
H    -0.835000000    -6.729000000    -5.163000000
C     0.238000000    -5.935000000    -3.495000000
O     1.250000000    -5.330000000    -4.285000000
C     1.417000000    -4.020000000    -4.549000000
C     2.722000000    -3.584000000    -4.825000000
H     3.435000000    -4.403000000    -4.873000000
C     3.017000000    -2.236000000    -4.930000000
O     4.326000000    -1.925000000    -5.202000000
C     4.926000000    -0.676000000    -4.944000000
C     4.963000000     0.230000000    -5.961000000
H     4.633000000     0.007000000    -6.973000000
C     5.455000000     1.542000000    -5.727000000
H     5.419000000     2.308000000    -6.497000000
C     5.988000000     1.827000000    -4.484000000
H     6.495000000     2.751000000    -4.221000000
C     5.838000000     0.879000000    -3.472000000
C     5.203000000    -0.308000000    -3.626000000
H     5.199000000    -0.967000000    -2.761000000
C     2.830000000    -0.314000000     0.803000000
H     3.829000000     0.040000000     0.559000000
C     1.798000000     0.205000000     0.057000000
H     2.140000000     0.922000000    -0.685000000
C     0.515000000    -0.126000000     0.331000000
H    -0.280000000     0.457000000    -0.156000000
C     0.278000000    -0.967000000     1.393000000
H    -0.751000000    -1.212000000     1.641000000
C     1.284000000    -1.518000000     2.164000000
H     1.041000000    -2.262000000     2.918000000
C     2.595000000    -1.144000000     1.866000000
C     3.757000000    -1.491000000     2.795000000
O     3.613000000    -2.287000000     3.632000000
O     4.934000000    -1.241000000     2.505000000
O     2.968000000    -4.875000000     2.545000000
H     2.880000000    -4.862000000     1.592000000
H     3.433000000    -4.064000000     2.753000000
O     7.848000000    -4.418000000     0.617000000
H     8.225000000    -5.051000000     1.227000000
H     6.958000000    -4.735000000     0.462000000
O     7.428000000    -2.501000000    -2.904000000
H     7.318000000    -1.890000000    -2.175000000
H     7.917000000    -3.234000000    -2.529000000
O     5.473000000    -1.278000000     5.407000000
H     4.900000000    -0.516000000     5.492000000
H     5.118000000    -1.763000000     4.662000000
O     5.464000000    -2.553000000     0.261000000
H     6.407000000    -2.637000000     0.398000000
H     5.142000000    -2.131000000     1.058000000
O     7.751000000    -2.544000000     3.255000000
H     6.926000000    -2.078000000     3.391000000
H     8.327000000    -1.898000000     2.847000000
O     7.945000000    -2.040000000     6.899000000
H     7.031000000    -1.903000000     7.148000000
H     7.937000000    -2.032000000     5.942000000
O     8.799000000     1.062000000     6.206000000
H     7.883000000     0.925000000     6.444000000
H     8.764000000     1.445000000     5.329000000
O     4.416000000    -7.037000000     3.018000000
H     4.944000000    -6.987000000     3.816000000
H     3.967000000    -6.193000000     2.975000000
O     3.033000000    -4.275000000    -0.082000000
H     3.943000000    -4.067000000    -0.294000000
H     2.603000000    -3.423000000    -0.011000000
O     7.415000000     0.047000000     2.221000000
H     7.461000000     0.772000000     2.845000000
H     6.542000000    -0.323000000     2.348000000
O     2.334000000    -3.678000000     5.452000000
H     1.979000000    -4.436000000     4.987000000
H     2.594000000    -3.072000000     4.759000000
O     8.474000000     2.043000000     3.835000000
H     8.390000000     2.949000000     4.132000000
H     9.107000000     2.083000000     3.119000000
O     8.324000000    -5.008000000     4.637000000
H     8.347000000    -4.169000000     4.177000000
H     7.563000000    -5.460000000     4.272000000
O     1.265000000    -5.977000000     4.373000000
H     1.574000000    -5.928000000     3.469000000
H     0.949000000    -6.875000000     4.470000000
O     4.054000000    -2.946000000     7.284000000
H     4.717000000    -2.738000000     6.625000000
H     3.317000000    -3.292000000     6.781000000
O     6.181000000     1.899000000     7.536000000
H     6.202000000     2.853000000     7.458000000
H     5.288000000     1.658000000     7.289000000
O     8.780000000    -0.643000000    -0.181000000
H     8.241000000    -0.326000000     0.544000000
H     9.340000000     0.101000000    -0.405000000
O     1.045000000    -5.509000000     7.030000000
H     0.910000000    -4.604000000     6.750000000
H     1.365000000    -5.956000000     6.246000000
