215
-1444.64550
C    -0.725000000     0.478000000     5.507000000
H    -1.699000000     0.053000000     5.280000000
C    -0.442000000     1.712000000     4.909000000
C     0.768000000     2.386000000     5.159000000
H     0.962000000     3.318000000     4.634000000
C    -1.263000000     2.187000000     3.760000000
O    -2.696000000     2.162000000     3.976000000
H    -0.893000000     1.564000000     2.932000000
O    -1.013000000     3.526000000     3.439000000
C    -0.772000000     3.952000000     2.150000000
C     0.549000000     4.163000000     1.679000000
H     1.386000000     3.788000000     2.262000000
C     0.737000000     4.521000000     0.316000000
O     2.055000000     4.431000000    -0.216000000
C    -0.392000000     4.726000000    -0.505000000
C    -0.144000000     5.202000000    -1.871000000
H    -0.841000000     5.961000000    -2.233000000
C    -0.163000000     3.922000000    -2.728000000
C    -1.363000000     3.459000000    -3.284000000
H    -2.295000000     3.985000000    -3.098000000
H     0.820000000     5.692000000    -2.023000000
C    -1.659000000     4.654000000     0.009000000
H    -2.452000000     4.869000000    -0.703000000
C    -1.898000000     4.250000000     1.346000000
C    -3.319000000     4.129000000     1.860000000
H    -4.040000000     4.678000000     1.251000000
H    -3.469000000     4.370000000     2.915000000
C    -3.757000000     2.669000000     1.859000000
C    -4.537000000     2.220000000     0.784000000
H    -4.851000000     3.021000000     0.118000000
C    -3.360000000     1.744000000     2.827000000
C    -3.654000000     0.381000000     2.619000000
H    -3.459000000    -0.359000000     3.391000000
C    -4.349000000    -0.075000000     1.541000000
O    -4.489000000    -1.423000000     1.443000000
C    -3.630000000    -2.145000000     0.489000000
C    -3.218000000    -3.444000000     0.996000000
C    -3.037000000    -4.537000000     0.141000000
H    -3.421000000    -4.511000000    -0.875000000
C    -2.680000000    -3.510000000     2.291000000
H    -2.688000000    -2.688000000     3.001000000
O    -4.248000000    -2.306000000    -0.793000000
H    -2.730000000    -1.571000000     0.226000000
C    -4.837000000     0.864000000     0.629000000
C    -5.563000000     0.352000000    -0.624000000
H    -6.273000000     1.125000000    -0.925000000
H    -6.123000000    -0.582000000    -0.535000000
C    -4.559000000    -0.058000000    -1.714000000
C    -4.076000000     0.929000000    -2.581000000
H    -4.347000000     1.979000000    -2.505000000
C    -4.021000000    -1.353000000    -1.771000000
C    -2.976000000    -1.669000000    -2.700000000
H    -2.579000000    -2.680000000    -2.760000000
C    -2.639000000    -0.690000000    -3.602000000
O    -1.594000000    -1.132000000    -4.401000000
C    -0.280000000    -0.650000000    -4.176000000
C     0.747000000    -1.805000000    -4.332000000
C     0.415000000    -3.067000000    -3.901000000
H    -0.523000000    -3.200000000    -3.368000000
C     2.037000000    -1.606000000    -4.860000000
H     2.394000000    -0.633000000    -5.190000000
O     0.056000000     0.538000000    -4.973000000
H    -0.178000000    -0.261000000    -3.153000000
C    -3.072000000     0.615000000    -3.549000000
C    -2.668000000     1.633000000    -4.657000000
H    -3.378000000     2.428000000    -4.894000000
H    -2.373000000     1.142000000    -5.587000000
C    -1.310000000     2.276000000    -4.060000000
C    -0.075000000     1.788000000    -4.449000000
C     1.127000000     2.235000000    -3.912000000
H     2.083000000     1.769000000    -4.137000000
C     1.007000000     3.252000000    -2.985000000
O     2.176000000     3.635000000    -2.425000000
C     2.221000000     3.285000000    -1.073000000
H     1.404000000     2.598000000    -0.805000000
C     3.580000000     2.644000000    -0.757000000
C     3.922000000     2.518000000     0.562000000
H     3.230000000     2.918000000     1.299000000
C     4.358000000     1.964000000    -1.651000000
H     4.013000000     1.876000000    -2.678000000
C     5.446000000     1.141000000    -1.302000000
O     6.265000000     0.375000000    -2.181000000
C     5.867000000     1.164000000    -0.021000000
H     6.710000000     0.560000000     0.308000000
C     5.076000000     1.781000000     0.942000000
O     5.306000000     1.676000000     2.340000000
C     4.809000000     2.518000000     3.234000000
C     3.980000000     2.026000000     4.283000000
H     3.677000000     0.983000000     4.314000000
C     5.267000000     3.815000000     3.296000000
H     5.947000000     4.090000000     2.494000000
C     4.903000000     4.666000000     4.323000000
H     5.303000000     5.676000000     4.355000000
C     4.062000000     4.194000000     5.298000000
H     3.893000000     4.755000000     6.214000000
C     3.616000000     2.881000000     5.277000000
O     2.854000000     2.476000000     6.311000000
C     1.624000000     1.829000000     6.109000000
C     1.382000000     0.570000000     6.727000000
H     2.066000000     0.033000000     7.379000000
C     0.167000000    -0.059000000     6.423000000
O    -0.126000000    -1.258000000     7.012000000
C    -1.008000000    -2.207000000     6.569000000
C    -0.756000000    -2.886000000     5.359000000
H     0.160000000    -2.682000000     4.811000000
C    -2.184000000    -2.437000000     7.273000000
H    -2.473000000    -1.784000000     8.093000000
C    -3.074000000    -3.449000000     6.885000000
H    -3.955000000    -3.745000000     7.450000000
C    -2.681000000    -4.215000000     5.772000000
H    -3.297000000    -5.048000000     5.444000000
C    -1.547000000    -3.971000000     4.976000000
O    -1.192000000    -4.636000000     3.867000000
C    -1.978000000    -4.634000000     2.686000000
C    -1.890000000    -5.693000000     1.842000000
H    -1.339000000    -6.562000000     2.193000000
C    -2.429000000    -5.702000000     0.565000000
O    -2.140000000    -6.758000000    -0.275000000
C    -1.841000000    -6.512000000    -1.653000000
C    -0.531000000    -6.196000000    -2.088000000
H     0.308000000    -6.133000000    -1.400000000
C    -2.859000000    -6.539000000    -2.651000000
H    -3.865000000    -6.703000000    -2.275000000
C    -2.523000000    -6.315000000    -3.986000000
H    -3.363000000    -6.296000000    -4.675000000
C    -1.216000000    -6.108000000    -4.450000000
H    -0.943000000    -5.842000000    -5.467000000
C    -0.291000000    -5.932000000    -3.418000000
O     0.927000000    -5.533000000    -3.806000000
C     1.300000000    -4.197000000    -4.177000000
C     2.525000000    -3.955000000    -4.750000000
H     3.209000000    -4.787000000    -4.895000000
C     2.991000000    -2.675000000    -4.943000000
O     4.224000000    -2.412000000    -5.511000000
C     4.941000000    -1.310000000    -5.131000000
C     5.261000000    -0.383000000    -6.163000000
H     4.990000000    -0.699000000    -7.167000000
C     5.952000000     0.771000000    -5.836000000
H     6.197000000     1.401000000    -6.687000000
C     6.353000000     0.992000000    -4.524000000
H     6.819000000     1.947000000    -4.293000000
C     5.963000000     0.129000000    -3.502000000
C     5.255000000    -1.052000000    -3.791000000
H     4.913000000    -1.723000000    -3.008000000
C     2.971000000    -0.977000000     0.676000000
H     3.803000000    -1.132000000    -0.006000000
C     1.838000000    -0.422000000     0.176000000
H     1.939000000    -0.027000000    -0.831000000
C     0.673000000    -0.294000000     0.917000000
H    -0.206000000     0.128000000     0.422000000
C     0.669000000    -0.749000000     2.228000000
H    -0.234000000    -0.673000000     2.829000000
C     1.864000000    -1.174000000     2.806000000
H     1.808000000    -1.395000000     3.869000000
C     3.037000000    -1.263000000     2.058000000
C     4.368000000    -1.495000000     2.706000000
O     4.475000000    -1.397000000     3.896000000
O     5.307000000    -1.861000000     1.994000000
O     8.959000000    -0.787000000    -1.465000000
H     8.314000000    -1.468000000    -1.276000000
H     8.902000000    -0.660000000    -2.412000000
O     5.509000000    -6.546000000     6.177000000
H     4.976000000    -7.246000000     5.802000000
H     4.974000000    -5.758000000     6.080000000
O     3.647000000    -4.891000000     2.053000000
H     3.373000000    -4.506000000     1.220000000
H     4.600000000    -4.948000000     1.988000000
O     6.819000000    -2.223000000     4.823000000
H     7.332000000    -1.415000000     4.848000000
H     6.011000000    -1.979000000     4.372000000
O     5.208000000    -3.120000000    -0.572000000
H     6.050000000    -3.434000000    -0.902000000
H     5.413000000    -2.741000000     0.283000000
O     6.274000000    -5.015000000     2.338000000
H     6.356000000    -4.081000000     2.531000000
H     7.169000000    -5.302000000     2.156000000
O     8.755000000    -4.067000000     4.750000000
H     7.922000000    -3.594000000     4.752000000
H     9.380000000    -3.448000000     4.374000000
O     4.861000000    -7.292000000     3.652000000
H     5.128000000    -7.717000000     2.838000000
H     5.016000000    -6.361000000     3.499000000
O     8.097000000     1.207000000     4.284000000
H     7.983000000     1.768000000     3.516000000
H     8.639000000     1.724000000     4.879000000
O     6.291000000     0.792000000     6.363000000
H     6.812000000     0.975000000     5.581000000
H     5.500000000     0.367000000     6.030000000
O     2.342000000    -3.708000000    -0.017000000
H     2.133000000    -2.932000000     0.503000000
H     2.897000000    -3.379000000    -0.725000000
O     7.961000000    -2.482000000     2.240000000
H     8.407000000    -1.825000000     2.775000000
H     7.082000000    -2.127000000     2.106000000
O     5.806000000    -6.049000000    -0.793000000
H     6.528000000    -5.865000000    -1.393000000
H     5.659000000    -5.223000000    -0.332000000
O     3.505000000    -3.730000000     5.549000000
H     3.018000000    -4.322000000     4.976000000
H     3.693000000    -2.967000000     5.002000000
O     9.854000000    -0.957000000     4.022000000
H     9.139000000    -0.352000000     4.219000000
H    10.527000000    -0.409000000     3.619000000
O     1.744000000    -5.128000000     4.077000000
H     2.295000000    -5.121000000     3.295000000
H     1.021000000    -5.715000000     3.856000000
O     5.321000000    -3.514000000     7.321000000
H     5.965000000    -3.011000000     6.823000000
H     4.592000000    -3.639000000     6.714000000
O    10.527000000    -2.984000000     1.869000000
H    10.722000000    -3.095000000     0.939000000
H     9.580000000    -2.843000000     1.900000000
O     7.796000000    -3.545000000    -0.693000000
H     7.833000000    -3.595000000     0.262000000
H     8.522000000    -4.093000000    -0.990000000
