215
-1432.80291
C     0.316000000     0.675000000     5.149000000
H    -0.326000000    -0.195000000     5.260000000
C    -0.191000000     1.707000000     4.341000000
C     0.669000000     2.774000000     4.055000000
H     0.332000000     3.506000000     3.326000000
C    -1.491000000     1.631000000     3.522000000
O    -2.394000000     0.578000000     3.998000000
H    -1.153000000     1.460000000     2.490000000
O    -2.240000000     2.848000000     3.503000000
C    -2.760000000     3.176000000     2.273000000
C    -2.109000000     4.064000000     1.464000000
H    -1.203000000     4.554000000     1.813000000
C    -2.496000000     4.183000000     0.109000000
O    -1.587000000     4.843000000    -0.612000000
C    -3.548000000     3.356000000    -0.419000000
C    -3.933000000     3.614000000    -1.882000000
H    -5.002000000     3.466000000    -2.046000000
C    -3.191000000     2.573000000    -2.769000000
C    -3.720000000     1.261000000    -2.956000000
H    -4.712000000     1.160000000    -2.524000000
H    -3.682000000     4.634000000    -2.179000000
C    -4.237000000     2.550000000     0.436000000
H    -5.043000000     1.988000000    -0.029000000
C    -3.916000000     2.481000000     1.776000000
C    -4.629000000     1.383000000     2.613000000
H    -5.658000000     1.306000000     2.254000000
H    -4.690000000     1.787000000     3.626000000
C    -4.007000000    -0.004000000     2.526000000
C    -4.560000000    -0.865000000     1.584000000
H    -5.283000000    -0.561000000     0.831000000
C    -2.908000000    -0.409000000     3.268000000
C    -2.386000000    -1.686000000     3.226000000
H    -1.498000000    -1.997000000     3.770000000
C    -3.021000000    -2.564000000     2.423000000
O    -2.420000000    -3.873000000     2.330000000
C    -1.582000000    -4.014000000     1.134000000
C    -0.192000000    -4.704000000     1.545000000
C     0.461000000    -5.615000000     0.706000000
H     0.078000000    -5.899000000    -0.271000000
C     0.438000000    -4.372000000     2.733000000
H     0.116000000    -3.621000000     3.450000000
O    -2.095000000    -4.707000000     0.002000000
H    -1.350000000    -3.003000000     0.767000000
C    -4.021000000    -2.167000000     1.539000000
C    -4.557000000    -3.116000000     0.563000000
H    -5.619000000    -2.891000000     0.451000000
H    -4.416000000    -4.130000000     0.944000000
C    -3.779000000    -3.156000000    -0.788000000
C    -4.088000000    -2.126000000    -1.699000000
H    -4.891000000    -1.473000000    -1.368000000
C    -2.696000000    -3.988000000    -0.987000000
C    -1.915000000    -3.799000000    -2.130000000
H    -1.013000000    -4.374000000    -2.322000000
C    -2.293000000    -2.833000000    -3.100000000
O    -1.320000000    -2.571000000    -4.106000000
C    -0.443000000    -1.368000000    -3.847000000
C     1.038000000    -1.609000000    -4.081000000
C     1.495000000    -2.949000000    -3.988000000
H     0.837000000    -3.798000000    -3.821000000
C     1.992000000    -0.614000000    -4.413000000
H     1.629000000     0.383000000    -4.649000000
O    -0.927000000    -0.314000000    -4.675000000
H    -0.614000000    -1.100000000    -2.793000000
C    -3.429000000    -1.996000000    -2.899000000
C    -3.800000000    -0.901000000    -3.908000000
H    -4.875000000    -0.790000000    -3.752000000
H    -3.692000000    -1.252000000    -4.936000000
C    -3.058000000     0.355000000    -3.738000000
C    -1.735000000     0.620000000    -4.101000000
C    -1.052000000     1.785000000    -3.774000000
H    -0.020000000     1.895000000    -4.098000000
C    -1.824000000     2.765000000    -3.109000000
O    -1.242000000     3.922000000    -2.833000000
C    -0.718000000     4.095000000    -1.524000000
H    -0.564000000     3.051000000    -1.213000000
C     0.703000000     4.622000000    -1.396000000
C     1.154000000     5.458000000    -0.389000000
H     0.440000000     5.644000000     0.409000000
C     1.540000000     4.425000000    -2.514000000
H     1.169000000     3.820000000    -3.337000000
C     2.839000000     4.916000000    -2.457000000
O     3.734000000     4.794000000    -3.475000000
C     3.262000000     5.740000000    -1.457000000
H     4.219000000     6.252000000    -1.513000000
C     2.373000000     6.054000000    -0.463000000
O     2.783000000     6.864000000     0.548000000
C     2.383000000     6.624000000     1.834000000
C     2.803000000     5.471000000     2.475000000
H     3.389000000     4.762000000     1.897000000
C     1.566000000     7.527000000     2.578000000
H     1.280000000     8.498000000     2.181000000
C     1.122000000     7.215000000     3.876000000
H     0.566000000     7.961000000     4.438000000
C     1.556000000     5.980000000     4.441000000
H     1.240000000     5.717000000     5.447000000
C     2.425000000     5.143000000     3.749000000
O     2.798000000     3.951000000     4.242000000
C     1.914000000     2.912000000     4.642000000
C     2.358000000     1.964000000     5.561000000
H     3.369000000     2.006000000     5.958000000
C     1.577000000     0.757000000     5.743000000
O     2.139000000    -0.331000000     6.362000000
C     1.658000000    -1.663000000     6.299000000
C     2.182000000    -2.469000000     5.276000000
H     2.969000000    -2.127000000     4.609000000
C     0.677000000    -2.103000000     7.156000000
H     0.221000000    -1.477000000     7.919000000
C     0.328000000    -3.454000000     7.177000000
H    -0.311000000    -3.813000000     7.980000000
C     0.974000000    -4.355000000     6.281000000
H     0.825000000    -5.431000000     6.324000000
C     1.815000000    -3.828000000     5.286000000
O     2.299000000    -4.695000000     4.287000000
C     1.642000000    -5.014000000     3.135000000
C     2.339000000    -5.800000000     2.309000000
H     3.330000000    -6.190000000     2.526000000
C     1.747000000    -6.011000000     1.082000000
O     2.488000000    -6.792000000     0.214000000
C     2.380000000    -6.707000000    -1.109000000
C     2.779000000    -5.521000000    -1.789000000
H     3.033000000    -4.577000000    -1.314000000
C     1.967000000    -7.799000000    -1.898000000
H     1.524000000    -8.663000000    -1.409000000
C     2.141000000    -7.854000000    -3.311000000
H     1.873000000    -8.756000000    -3.854000000
C     2.604000000    -6.691000000    -3.953000000
H     2.763000000    -6.661000000    -5.027000000
C     2.917000000    -5.562000000    -3.212000000
O     3.434000000    -4.468000000    -3.947000000
C     2.905000000    -3.230000000    -4.052000000
C     3.817000000    -2.234000000    -4.251000000
H     4.889000000    -2.381000000    -4.148000000
C     3.323000000    -0.928000000    -4.430000000
O     4.262000000     0.080000000    -4.620000000
C     3.846000000     1.355000000    -4.985000000
C     3.543000000     1.676000000    -6.340000000
H     3.588000000     0.853000000    -7.048000000
C     3.336000000     2.996000000    -6.720000000
H     3.266000000     3.219000000    -7.782000000
C     3.337000000     4.023000000    -5.808000000
H     3.184000000     5.041000000    -6.156000000
C     3.631000000     3.690000000    -4.431000000
C     3.937000000     2.399000000    -4.070000000
H     4.186000000     2.080000000    -3.061000000
C     2.623000000     1.592000000    -0.469000000
H     3.158000000     1.995000000    -1.325000000
C     1.393000000     0.957000000    -0.804000000
H     1.094000000     0.863000000    -1.845000000
C     0.690000000     0.337000000     0.159000000
H    -0.192000000    -0.279000000    -0.016000000
C     1.242000000     0.267000000     1.452000000
H     0.694000000    -0.153000000     2.292000000
C     2.458000000     0.957000000     1.780000000
H     2.791000000     1.025000000     2.813000000
C     3.166000000     1.606000000     0.841000000
C     4.417000000     2.333000000     1.127000000
O     4.864000000     2.180000000     2.238000000
O     5.127000000     2.779000000     0.253000000
O     5.778000000    -0.290000000     2.613000000
H     5.914000000    -0.540000000     1.699000000
H     5.381000000     0.580000000     2.566000000
O     7.155000000     1.870000000    -4.896000000
H     6.400000000     1.607000000    -4.370000000
H     7.361000000     1.098000000    -5.423000000
O     6.610000000     1.880000000    -1.677000000
H     6.085000000     2.179000000    -0.933000000
H     7.299000000     2.539000000    -1.764000000
O     7.006000000     4.750000000     4.318000000
H     7.008000000     3.951000000     3.791000000
H     6.367000000     4.579000000     5.010000000
O     6.367000000    -0.333000000    -0.071000000
H     6.297000000     0.469000000    -0.589000000
H     6.411000000    -1.035000000    -0.721000000
O     7.231000000     7.298000000     1.002000000
H     7.025000000     6.433000000     0.649000000
H     7.755000000     7.120000000     1.783000000
O     5.707000000     7.730000000     3.700000000
H     5.305000000     7.190000000     3.019000000
H     6.469000000     7.227000000     3.986000000
O     8.588000000     3.655000000    -1.646000000
H     8.671000000     4.254000000    -2.389000000
H     9.490000000     3.432000000    -1.416000000
O     4.133000000    -2.114000000    -1.063000000
H     5.048000000    -2.098000000    -1.345000000
H     3.656000000    -1.683000000    -1.773000000
O     8.782000000    -1.216000000     3.008000000
H     8.238000000    -0.753000000     2.371000000
H     8.940000000    -0.574000000     3.700000000
O     6.101000000     1.850000000     4.671000000
H     6.773000000     1.169000000     4.676000000
H     5.733000000     1.818000000     3.788000000
O     7.712000000     2.187000000     1.605000000
H     7.794000000     3.049000000     1.198000000
H     6.774000000     2.090000000     1.773000000
O     9.734000000     1.204000000    -3.190000000
H     9.431000000     0.397000000    -3.604000000
H     9.107000000     1.361000000    -2.484000000
O     9.346000000     0.481000000     0.307000000
H     8.617000000    -0.112000000     0.128000000
H     8.941000000     1.235000000     0.737000000
O     5.337000000    -1.409000000     6.381000000
H     5.180000000    -1.582000000     5.453000000
H     5.064000000    -2.211000000     6.825000000
O     4.847000000     4.230000000     5.944000000
H     4.107000000     4.493000000     5.398000000
H     5.113000000     3.380000000     5.593000000
O     6.706000000     4.742000000     0.006000000
H     6.060000000     4.036000000     0.007000000
H     7.435000000     4.399000000    -0.511000000
O     4.621000000    -2.961000000     1.717000000
H     4.371000000    -2.687000000     0.835000000
H     4.809000000    -2.142000000     2.177000000
O     5.372000000     8.958000000     0.428000000
H     6.044000000     8.415000000     0.840000000
H     4.740000000     8.331000000     0.075000000
