215
-1437.54268
C    -0.668000000     0.057000000     5.608000000
H    -1.626000000    -0.433000000     5.767000000
C    -0.585000000     1.039000000     4.647000000
C     0.694000000     1.643000000     4.436000000
H     0.942000000     2.340000000     3.638000000
C    -1.740000000     1.429000000     3.746000000
O    -2.984000000     0.692000000     4.005000000
H    -1.320000000     1.103000000     2.783000000
O    -1.965000000     2.856000000     3.614000000
C    -2.200000000     3.410000000     2.391000000
C    -1.110000000     4.098000000     1.770000000
H    -0.160000000     4.147000000     2.296000000
C    -1.223000000     4.461000000     0.396000000
O    -0.053000000     4.917000000    -0.217000000
C    -2.386000000     4.235000000    -0.342000000
C    -2.437000000     4.566000000    -1.849000000
H    -3.444000000     4.836000000    -2.174000000
C    -1.947000000     3.493000000    -2.811000000
C    -2.807000000     2.488000000    -3.347000000
H    -3.872000000     2.469000000    -3.129000000
H    -1.774000000     5.427000000    -1.960000000
C    -3.475000000     3.585000000     0.275000000
H    -4.280000000     3.293000000    -0.395000000
C    -3.400000000     3.164000000     1.654000000
C    -4.536000000     2.359000000     2.174000000
H    -5.431000000     2.689000000     1.643000000
H    -4.642000000     2.586000000     3.236000000
C    -4.318000000     0.864000000     1.962000000
C    -4.766000000     0.206000000     0.845000000
H    -5.260000000     0.685000000     0.003000000
C    -3.623000000     0.122000000     2.923000000
C    -3.592000000    -1.279000000     2.802000000
H    -3.067000000    -1.913000000     3.511000000
C    -4.027000000    -1.913000000     1.672000000
O    -3.603000000    -3.205000000     1.420000000
C    -2.543000000    -3.256000000     0.448000000
C    -1.365000000    -4.126000000     0.892000000
C    -0.778000000    -5.105000000     0.123000000
H    -1.089000000    -5.343000000    -0.891000000
C    -0.999000000    -4.049000000     2.258000000
H    -1.381000000    -3.240000000     2.875000000
O    -3.071000000    -3.866000000    -0.668000000
H    -2.295000000    -2.212000000     0.207000000
C    -4.664000000    -1.172000000     0.639000000
C    -5.266000000    -1.853000000    -0.585000000
H    -6.126000000    -1.329000000    -1.008000000
H    -5.626000000    -2.800000000    -0.179000000
C    -4.229000000    -1.941000000    -1.662000000
C    -4.184000000    -0.927000000    -2.646000000
H    -4.826000000    -0.053000000    -2.572000000
C    -3.298000000    -3.026000000    -1.712000000
C    -2.350000000    -2.976000000    -2.743000000
H    -1.589000000    -3.751000000    -2.749000000
C    -2.235000000    -1.977000000    -3.692000000
O    -1.091000000    -1.832000000    -4.456000000
C    -0.175000000    -0.808000000    -4.054000000
C     1.193000000    -1.345000000    -4.168000000
C     1.412000000    -2.699000000    -3.863000000
H     0.616000000    -3.375000000    -3.561000000
C     2.282000000    -0.482000000    -4.455000000
H     2.153000000     0.577000000    -4.663000000
O    -0.276000000     0.312000000    -4.930000000
H    -0.415000000    -0.530000000    -3.018000000
C    -3.147000000    -0.906000000    -3.602000000
C    -3.137000000     0.265000000    -4.590000000
H    -4.185000000     0.544000000    -4.718000000
H    -2.868000000    -0.177000000    -5.552000000
C    -2.229000000     1.436000000    -4.097000000
C    -0.884000000     1.397000000    -4.386000000
C    -0.103000000     2.377000000    -3.782000000
H     0.979000000     2.456000000    -3.841000000
C    -0.632000000     3.354000000    -2.973000000
O     0.306000000     4.242000000    -2.440000000
C     0.665000000     4.032000000    -1.041000000
H     0.515000000     2.979000000    -0.762000000
C     2.175000000     4.282000000    -0.941000000
C     2.727000000     4.704000000     0.289000000
H     2.036000000     5.052000000     1.052000000
C     3.012000000     4.158000000    -2.005000000
H     2.641000000     4.015000000    -3.017000000
C     4.428000000     4.170000000    -1.788000000
O     5.313000000     3.866000000    -2.783000000
C     4.937000000     4.393000000    -0.555000000
H     6.009000000     4.324000000    -0.390000000
C     4.075000000     4.658000000     0.511000000
O     4.598000000     4.958000000     1.769000000
C     3.928000000     4.648000000     2.916000000
C     3.917000000     3.362000000     3.381000000
H     4.328000000     2.613000000     2.708000000
C     3.268000000     5.667000000     3.569000000
H     3.178000000     6.625000000     3.062000000
C     2.505000000     5.379000000     4.643000000
H     2.041000000     6.219000000     5.153000000
C     2.555000000     4.154000000     5.215000000
H     2.013000000     3.903000000     6.122000000
C     3.154000000     3.078000000     4.504000000
O     3.049000000     1.836000000     5.012000000
C     1.764000000     1.271000000     5.282000000
C     1.592000000     0.315000000     6.262000000
H     2.394000000    -0.005000000     6.922000000
C     0.337000000    -0.241000000     6.474000000
O     0.175000000    -1.313000000     7.352000000
C    -0.202000000    -2.539000000     6.952000000
C     0.315000000    -3.032000000     5.750000000
H     1.154000000    -2.490000000     5.320000000
C    -1.226000000    -3.186000000     7.610000000
H    -1.804000000    -2.713000000     8.400000000
C    -1.768000000    -4.336000000     7.049000000
H    -2.691000000    -4.754000000     7.443000000
C    -1.147000000    -4.848000000     5.877000000
H    -1.585000000    -5.747000000     5.450000000
C    -0.115000000    -4.227000000     5.209000000
O     0.468000000    -4.764000000     4.017000000
C    -0.097000000    -4.925000000     2.789000000
C     0.500000000    -5.870000000     1.983000000
H     1.182000000    -6.641000000     2.331000000
C     0.216000000    -5.933000000     0.644000000
O     0.939000000    -6.862000000    -0.088000000
C     1.152000000    -6.631000000    -1.412000000
C     2.048000000    -5.680000000    -1.842000000
H     2.624000000    -5.088000000    -1.135000000
C     0.360000000    -7.299000000    -2.314000000
H    -0.309000000    -8.121000000    -2.074000000
C     0.500000000    -7.024000000    -3.680000000
H    -0.061000000    -7.662000000    -4.359000000
C     1.443000000    -6.094000000    -4.164000000
H     1.480000000    -5.859000000    -5.225000000
C     2.162000000    -5.403000000    -3.181000000
O     3.070000000    -4.425000000    -3.618000000
C     2.746000000    -3.160000000    -3.888000000
C     3.807000000    -2.369000000    -4.201000000
H     4.845000000    -2.689000000    -4.163000000
C     3.662000000    -0.983000000    -4.484000000
O     4.773000000    -0.257000000    -4.803000000
C     4.685000000     1.138000000    -5.033000000
C     4.476000000     1.776000000    -6.231000000
H     4.177000000     1.206000000    -7.107000000
C     4.583000000     3.145000000    -6.312000000
H     4.494000000     3.619000000    -7.286000000
C     4.828000000     3.913000000    -5.174000000
H     4.920000000     4.989000000    -5.304000000
C     4.979000000     3.242000000    -3.910000000
C     4.889000000     1.882000000    -3.871000000
H     5.065000000     1.248000000    -3.006000000
C     3.531000000     0.527000000    -0.123000000
H     4.366000000     0.951000000    -0.674000000
C     2.204000000     0.780000000    -0.371000000
H     1.865000000     1.397000000    -1.199000000
C     1.113000000     0.241000000     0.383000000
H     0.111000000     0.505000000     0.099000000
C     1.498000000    -0.558000000     1.425000000
H     0.689000000    -1.015000000     1.989000000
C     2.841000000    -0.732000000     1.779000000
H     3.061000000    -1.300000000     2.680000000
C     3.825000000    -0.292000000     0.916000000
C     5.239000000    -0.723000000     1.193000000
O     5.581000000    -1.201000000     2.263000000
O     6.119000000    -0.494000000     0.404000000
O     3.641000000    -4.567000000     1.617000000
H     3.437000000    -3.755000000     1.154000000
H     3.388000000    -4.396000000     2.524000000
O     7.496000000    -0.290000000    -2.104000000
H     6.683000000    -0.327000000    -1.601000000
H     7.886000000     0.552000000    -1.869000000
O     7.252000000     0.504000000     4.222000000
H     6.576000000     0.170000000     3.631000000
H     7.534000000     1.327000000     3.823000000
O     9.157000000     2.955000000     2.056000000
H     9.155000000     2.776000000     2.996000000
H     8.911000000     2.122000000     1.653000000
O     6.282000000    -4.407000000     2.780000000
H     6.712000000    -3.749000000     2.234000000
H     5.404000000    -4.490000000     2.410000000
O     5.973000000    -0.746000000     7.239000000
H     6.459000000    -1.537000000     7.470000000
H     5.243000000    -1.060000000     6.705000000
O     7.608000000    -2.920000000    -3.213000000
H     7.599000000    -1.992000000    -2.980000000
H     7.387000000    -2.935000000    -4.145000000
O     8.528000000     2.428000000    -1.827000000
H     9.355000000     2.204000000    -1.399000000
H     8.477000000     3.381000000    -1.765000000
O     6.111000000    -4.455000000    -0.979000000
H     5.716000000    -3.843000000    -1.600000000
H     6.383000000    -3.908000000    -0.242000000
O     7.608000000    -2.727000000     1.022000000
H     8.371000000    -2.280000000     0.655000000
H     7.043000000    -2.019000000     1.332000000
O     3.944000000    -4.420000000     4.776000000
H     4.698000000    -4.787000000     5.238000000
H     3.516000000    -5.176000000     4.376000000
O    11.466000000     0.230000000     2.050000000
H    10.796000000    -0.092000000     2.654000000
H    11.718000000    -0.540000000     1.540000000
O     9.595000000    -3.669000000    -1.588000000
H     9.096000000    -3.354000000    -2.342000000
H     8.929000000    -3.913000000    -0.945000000
O     5.180000000    -2.015000000     4.732000000
H     5.461000000    -1.633000000     3.901000000
H     4.671000000    -2.786000000     4.482000000
O     7.544000000    -3.250000000     4.947000000
H     7.009000000    -2.457000000     4.979000000
H     7.110000000    -3.806000000     4.300000000
O     9.428000000    -1.245000000     4.068000000
H     8.837000000    -0.493000000     4.048000000
H     8.854000000    -1.997000000     4.214000000
O     8.487000000     0.675000000     1.081000000
H     9.122000000     0.680000000     0.365000000
H     7.715000000     0.244000000     0.714000000
O     3.390000000    -2.549000000    -0.824000000
H     3.317000000    -1.637000000    -0.542000000
H     2.604000000    -2.700000000    -1.349000000
O     6.193000000     3.778000000     5.700000000
H     6.594000000     3.061000000     6.191000000
H     5.464000000     3.370000000     5.233000000
