215
-1444.26247
C    -2.115000000    -1.076000000    -4.996000000
H    -2.095000000     0.002000000    -5.135000000
C    -2.647000000    -1.494000000    -3.758000000
C    -2.271000000    -2.801000000    -3.362000000
H    -2.340000000    -3.067000000    -2.310000000
C    -3.213000000    -0.567000000    -2.680000000
O    -3.741000000     0.518000000    -3.431000000
H    -2.528000000    -0.239000000    -1.884000000
O    -4.379000000    -1.119000000    -1.992000000
C    -4.581000000    -0.885000000    -0.636000000
C    -4.125000000    -1.828000000     0.262000000
H    -3.810000000    -2.817000000    -0.062000000
C    -4.105000000    -1.536000000     1.634000000
O    -3.539000000    -2.556000000     2.448000000
C    -4.525000000    -0.307000000     2.153000000
C    -4.436000000    -0.036000000     3.647000000
H    -5.119000000     0.789000000     3.860000000
C    -3.115000000     0.450000000     4.196000000
C    -2.679000000     1.795000000     4.124000000
H    -3.327000000     2.516000000     3.631000000
H    -4.718000000    -0.889000000     4.267000000
C    -4.903000000     0.615000000     1.251000000
H    -5.214000000     1.601000000     1.585000000
C    -4.904000000     0.380000000    -0.106000000
C    -5.334000000     1.467000000    -1.097000000
H    -6.025000000     2.114000000    -0.552000000
H    -5.902000000     1.069000000    -1.941000000
C    -4.123000000     2.248000000    -1.685000000
C    -3.616000000     3.292000000    -1.002000000
H    -4.103000000     3.675000000    -0.109000000
C    -3.442000000     1.745000000    -2.805000000
C    -2.286000000     2.385000000    -3.241000000
H    -1.774000000     1.928000000    -4.084000000
C    -1.833000000     3.534000000    -2.623000000
O    -0.663000000     4.161000000    -3.031000000
C     0.514000000     3.762000000    -2.166000000
C     1.680000000     3.347000000    -3.045000000
C     2.975000000     3.337000000    -2.455000000
H     3.108000000     3.740000000    -1.454000000
C     1.559000000     2.817000000    -4.355000000
H     0.566000000     2.704000000    -4.783000000
O     0.798000000     4.845000000    -1.207000000
H     0.111000000     2.874000000    -1.658000000
C    -2.415000000     3.961000000    -1.441000000
C    -1.930000000     5.188000000    -0.609000000
H    -2.753000000     5.608000000    -0.028000000
H    -1.411000000     5.887000000    -1.269000000
C    -0.921000000     4.750000000     0.407000000
C    -1.301000000     4.479000000     1.723000000
H    -2.282000000     4.757000000     2.098000000
C     0.429000000     4.572000000     0.049000000
C     1.325000000     4.061000000     0.959000000
H     2.370000000     4.057000000     0.660000000
C     0.904000000     3.570000000     2.200000000
O     1.783000000     3.041000000     3.162000000
C     1.631000000     1.648000000     3.533000000
C     3.065000000     1.030000000     3.470000000
C     4.162000000     1.707000000     2.830000000
H     4.095000000     2.722000000     2.446000000
C     3.136000000    -0.332000000     3.788000000
H     2.315000000    -0.846000000     4.280000000
O     0.946000000     1.415000000     4.723000000
H     0.991000000     1.260000000     2.726000000
C    -0.397000000     3.863000000     2.577000000
C    -0.904000000     3.627000000     4.051000000
H    -1.783000000     4.272000000     4.119000000
H    -0.118000000     3.800000000     4.789000000
C    -1.319000000     2.180000000     4.271000000
C    -0.438000000     1.156000000     4.645000000
C    -0.837000000    -0.151000000     4.822000000
H    -0.126000000    -0.919000000     5.114000000
C    -2.135000000    -0.457000000     4.597000000
O    -2.468000000    -1.752000000     4.432000000
C    -2.272000000    -2.364000000     3.077000000
H    -1.666000000    -1.689000000     2.457000000
C    -1.527000000    -3.757000000     3.097000000
C    -1.483000000    -4.529000000     1.904000000
H    -2.146000000    -4.311000000     1.071000000
C    -0.696000000    -4.177000000     4.121000000
H    -0.617000000    -3.622000000     5.053000000
C     0.160000000    -5.323000000     4.055000000
O     1.140000000    -5.653000000     4.999000000
C     0.161000000    -6.021000000     2.882000000
H     0.811000000    -6.876000000     2.710000000
C    -0.773000000    -5.704000000     1.874000000
O    -0.665000000    -6.370000000     0.658000000
C    -1.419000000    -6.199000000    -0.415000000
C    -0.826000000    -5.567000000    -1.525000000
H     0.031000000    -4.932000000    -1.314000000
C    -2.571000000    -6.985000000    -0.576000000
H    -2.991000000    -7.557000000     0.247000000
C    -3.198000000    -6.952000000    -1.824000000
H    -4.117000000    -7.491000000    -2.038000000
C    -2.610000000    -6.314000000    -2.929000000
H    -3.173000000    -6.256000000    -3.857000000
C    -1.427000000    -5.564000000    -2.769000000
O    -1.009000000    -4.746000000    -3.686000000
C    -1.577000000    -3.640000000    -4.238000000
C    -1.290000000    -3.282000000    -5.513000000
H    -0.693000000    -3.911000000    -6.168000000
C    -1.424000000    -1.932000000    -5.840000000
O    -0.836000000    -1.488000000    -6.946000000
C    -0.336000000    -0.233000000    -7.094000000
C     0.862000000     0.136000000    -6.457000000
H     1.330000000    -0.553000000    -5.759000000
C    -0.852000000     0.623000000    -8.071000000
H    -1.783000000     0.377000000    -8.575000000
C    -0.219000000     1.773000000    -8.512000000
H    -0.569000000     2.314000000    -9.387000000
C     0.974000000     2.186000000    -7.881000000
H     1.412000000     3.162000000    -8.075000000
C     1.516000000     1.274000000    -6.923000000
O     2.573000000     1.775000000    -6.279000000
C     2.648000000     2.296000000    -4.998000000
C     3.942000000     2.419000000    -4.474000000
H     4.798000000     2.016000000    -5.009000000
C     4.064000000     2.861000000    -3.165000000
O     5.367000000     3.005000000    -2.750000000
C     5.691000000     3.207000000    -1.442000000
C     5.743000000     2.207000000    -0.453000000
H     5.469000000     1.173000000    -0.643000000
C     6.013000000     4.485000000    -0.982000000
H     6.088000000     5.306000000    -1.690000000
C     6.520000000     4.765000000     0.266000000
H     6.944000000     5.731000000     0.530000000
C     6.472000000     3.780000000     1.254000000
H     6.893000000     4.055000000     2.218000000
C     6.098000000     2.521000000     0.867000000
O     6.315000000     1.551000000     1.828000000
C     5.290000000     0.932000000     2.544000000
C     5.464000000    -0.407000000     2.929000000
H     6.289000000    -1.055000000     2.644000000
C     4.314000000    -1.042000000     3.534000000
O     4.402000000    -2.376000000     3.718000000
C     3.723000000    -3.066000000     4.691000000
C     4.047000000    -2.829000000     5.987000000
H     4.797000000    -2.095000000     6.270000000
C     3.426000000    -3.569000000     6.974000000
H     3.721000000    -3.420000000     8.009000000
C     2.493000000    -4.503000000     6.702000000
H     2.108000000    -5.136000000     7.497000000
C     2.151000000    -4.759000000     5.357000000
C     2.727000000    -4.013000000     4.328000000
H     2.445000000    -4.255000000     3.307000000
C     1.301000000    -2.337000000    -0.644000000
H     1.589000000    -3.249000000    -0.128000000
C     0.462000000    -1.401000000    -0.003000000
H     0.049000000    -1.468000000     1.000000000
C     0.033000000    -0.305000000    -0.756000000
H    -0.599000000     0.474000000    -0.285000000
C     0.535000000    -0.141000000    -2.050000000
H     0.263000000     0.776000000    -2.567000000
C     1.403000000    -1.061000000    -2.641000000
H     1.759000000    -0.861000000    -3.649000000
C     1.841000000    -2.152000000    -1.944000000
C     2.811000000    -3.084000000    -2.576000000
O     3.260000000    -2.824000000    -3.702000000
O     3.132000000    -4.141000000    -2.025000000
O     6.122000000    -0.880000000    -6.682000000
H     6.299000000    -0.730000000    -7.611000000
H     5.323000000    -1.407000000    -6.673000000
O     5.815000000    -3.449000000    -1.739000000
H     5.636000000    -2.883000000    -0.988000000
H     4.961000000    -3.807000000    -1.979000000
O     6.011000000    -7.619000000    -0.464000000
H     6.391000000    -7.550000000     0.412000000
H     5.527000000    -6.801000000    -0.581000000
O     0.133000000    -9.273000000    -2.795000000
H     0.897000000    -8.788000000    -3.108000000
H    -0.602000000    -8.907000000    -3.287000000
O     7.066000000    -1.908000000    -3.707000000
H     6.387000000    -2.269000000    -3.137000000
H     6.870000000    -0.972000000    -3.749000000
O     0.365000000    -6.407000000    -7.439000000
H     0.995000000    -6.510000000    -8.152000000
H     0.874000000    -6.569000000    -6.645000000
O     3.820000000    -2.210000000    -6.358000000
H     3.160000000    -2.776000000    -6.758000000
H     3.711000000    -2.342000000    -5.416000000
O     9.559000000    -3.055000000    -3.481000000
H     9.535000000    -3.865000000    -3.991000000
H     8.655000000    -2.739000000    -3.492000000
O     1.154000000    -3.554000000    -8.427000000
H     1.685000000    -4.183000000    -7.938000000
H     0.250000000    -3.800000000    -8.231000000
O     0.939000000    -7.164000000    -4.707000000
H     0.204000000    -6.617000000    -4.430000000
H     1.677000000    -6.858000000    -4.178000000
O     3.496000000    -4.939000000     0.468000000
H     2.950000000    -5.703000000     0.653000000
H     3.417000000    -4.811000000    -0.477000000
O     7.268000000    -5.394000000    -2.333000000
H     6.670000000    -4.655000000    -2.220000000
H     7.986000000    -5.043000000    -2.860000000
O     6.251000000    -4.288000000     1.421000000
H     6.573000000    -4.033000000     0.556000000
H     5.396000000    -4.684000000     1.251000000
O     2.834000000    -4.880000000    -6.853000000
H     3.266000000    -4.730000000    -6.012000000
H     3.230000000    -5.686000000    -7.185000000
O     2.744000000    -8.450000000    -0.953000000
H     1.842000000    -8.751000000    -1.068000000
H     3.252000000    -9.254000000    -0.849000000
O     6.639000000    -8.081000000    -4.350000000
H     6.480000000    -7.279000000    -3.852000000
H     6.283000000    -8.779000000    -3.800000000
O     2.781000000    -6.542000000    -3.010000000
H     2.646000000    -6.983000000    -2.171000000
H     3.053000000    -5.655000000    -2.773000000
O     6.146000000    -4.348000000    -7.411000000
H     6.585000000    -5.124000000    -7.062000000
H     5.406000000    -4.205000000    -6.821000000
O     4.530000000    -4.962000000    -4.652000000
H     4.081000000    -4.196000000    -4.293000000
H     4.050000000    -5.709000000    -4.296000000
