215
-1459.60031
C    -0.989000000     0.970000000     4.786000000
H    -1.873000000     0.378000000     5.010000000
C    -0.838000000     1.867000000     3.698000000
C     0.360000000     2.498000000     3.448000000
H     0.439000000     3.149000000     2.581000000
C    -2.048000000     1.981000000     2.747000000
O    -3.346000000     1.455000000     3.264000000
H    -1.762000000     1.521000000     1.789000000
O    -2.240000000     3.351000000     2.464000000
C    -2.356000000     3.610000000     1.117000000
C    -1.292000000     4.335000000     0.492000000
H    -0.429000000     4.762000000     0.997000000
C    -1.332000000     4.586000000    -0.958000000
O    -0.130000000     4.960000000    -1.489000000
C    -2.320000000     4.035000000    -1.756000000
C    -2.245000000     3.995000000    -3.262000000
H    -3.247000000     4.041000000    -3.693000000
C    -1.606000000     2.708000000    -3.722000000
C    -2.403000000     1.560000000    -4.065000000
H    -3.487000000     1.582000000    -3.978000000
H    -1.763000000     4.868000000    -3.708000000
C    -3.374000000     3.327000000    -1.110000000
H    -4.132000000     2.887000000    -1.754000000
C    -3.417000000     3.209000000     0.289000000
C    -4.672000000     2.552000000     0.884000000
H    -5.545000000     2.688000000     0.242000000
H    -4.851000000     3.048000000     1.840000000
C    -4.553000000     1.072000000     1.188000000
C    -4.899000000     0.118000000     0.208000000
H    -5.312000000     0.378000000    -0.763000000
C    -4.075000000     0.678000000     2.439000000
C    -3.946000000    -0.667000000     2.740000000
H    -3.436000000    -1.055000000     3.618000000
C    -4.214000000    -1.599000000     1.746000000
O    -3.771000000    -2.811000000     1.974000000
C    -2.670000000    -3.313000000     1.202000000
C    -1.850000000    -4.253000000     2.078000000
C    -0.892000000    -5.170000000     1.575000000
H    -0.865000000    -5.329000000     0.501000000
C    -1.752000000    -4.067000000     3.483000000
H    -2.455000000    -3.361000000     3.919000000
O    -3.051000000    -4.076000000    -0.024000000
H    -1.952000000    -2.517000000     0.951000000
C    -4.782000000    -1.243000000     0.486000000
C    -5.212000000    -2.220000000    -0.586000000
H    -6.079000000    -1.833000000    -1.126000000
H    -5.576000000    -3.102000000    -0.054000000
C    -4.145000000    -2.542000000    -1.603000000
C    -4.028000000    -1.822000000    -2.773000000
H    -4.777000000    -1.046000000    -2.910000000
C    -3.102000000    -3.382000000    -1.255000000
C    -2.079000000    -3.608000000    -2.136000000
H    -1.379000000    -4.423000000    -1.971000000
C    -1.883000000    -2.736000000    -3.287000000
O    -0.677000000    -2.782000000    -4.032000000
C     0.265000000    -1.680000000    -3.836000000
C     1.661000000    -2.232000000    -3.708000000
C     1.949000000    -3.084000000    -2.648000000
H     1.179000000    -3.414000000    -1.955000000
C     2.697000000    -1.747000000    -4.552000000
H     2.484000000    -0.945000000    -5.255000000
O     0.202000000    -0.790000000    -4.964000000
H    -0.100000000    -1.161000000    -2.938000000
C    -2.906000000    -1.849000000    -3.604000000
C    -2.731000000    -0.822000000    -4.715000000
H    -3.689000000    -0.423000000    -5.052000000
H    -2.298000000    -1.431000000    -5.512000000
C    -1.823000000     0.390000000    -4.514000000
C    -0.426000000     0.364000000    -4.688000000
C     0.373000000     1.557000000    -4.329000000
H     1.443000000     1.560000000    -4.523000000
C    -0.243000000     2.724000000    -3.847000000
O     0.567000000     3.773000000    -3.457000000
C     0.715000000     3.936000000    -1.978000000
H     0.408000000     2.997000000    -1.495000000
C     2.170000000     4.149000000    -1.688000000
C     2.612000000     5.026000000    -0.718000000
H     1.909000000     5.743000000    -0.300000000
C     3.157000000     3.329000000    -2.325000000
H     2.916000000     2.609000000    -3.103000000
C     4.524000000     3.440000000    -1.944000000
O     5.445000000     2.530000000    -2.504000000
C     4.944000000     4.335000000    -0.932000000
H     5.981000000     4.303000000    -0.610000000
C     3.943000000     5.156000000    -0.329000000
O     4.296000000     5.979000000     0.732000000
C     3.647000000     5.797000000     1.893000000
C     3.416000000     4.475000000     2.354000000
H     3.830000000     3.596000000     1.868000000
C     3.207000000     6.930000000     2.552000000
H     3.418000000     7.953000000     2.251000000
C     2.421000000     6.737000000     3.699000000
H     1.952000000     7.603000000     4.158000000
C     2.262000000     5.451000000     4.213000000
H     1.730000000     5.308000000     5.150000000
C     2.812000000     4.331000000     3.599000000
O     2.620000000     3.070000000     4.171000000
C     1.440000000     2.367000000     4.364000000
C     1.264000000     1.609000000     5.496000000
H     2.051000000     1.552000000     6.244000000
C     0.079000000     0.914000000     5.735000000
O     0.052000000     0.064000000     6.868000000
C    -0.736000000    -1.079000000     6.880000000
C    -0.487000000    -2.183000000     6.111000000
H     0.415000000    -2.209000000     5.505000000
C    -1.826000000    -1.081000000     7.729000000
H    -1.905000000    -0.118000000     8.227000000
C    -2.581000000    -2.220000000     8.050000000
H    -3.372000000    -2.219000000     8.796000000
C    -2.269000000    -3.373000000     7.268000000
H    -2.853000000    -4.270000000     7.457000000
C    -1.229000000    -3.342000000     6.310000000
O    -0.889000000    -4.535000000     5.677000000
C    -0.926000000    -4.806000000     4.305000000
C    -0.039000000    -5.646000000     3.752000000
H     0.690000000    -6.194000000     4.343000000
C     0.000000000    -5.866000000     2.408000000
O     0.968000000    -6.693000000     1.855000000
C     1.424000000    -6.573000000     0.549000000
C     2.296000000    -5.484000000     0.205000000
H     2.741000000    -4.795000000     0.918000000
C     1.031000000    -7.526000000    -0.368000000
H     0.493000000    -8.413000000    -0.046000000
C     1.498000000    -7.431000000    -1.731000000
H     1.351000000    -8.180000000    -2.505000000
C     2.289000000    -6.270000000    -2.052000000
H     2.625000000    -6.216000000    -3.085000000
C     2.711000000    -5.374000000    -1.116000000
O     3.601000000    -4.364000000    -1.436000000
C     3.306000000    -3.487000000    -2.471000000
C     4.362000000    -2.939000000    -3.212000000
H     5.399000000    -3.236000000    -3.077000000
C     4.015000000    -2.063000000    -4.230000000
O     4.983000000    -1.497000000    -5.005000000
C     5.094000000    -0.101000000    -4.953000000
C     4.735000000     0.643000000    -6.086000000
H     4.556000000     0.228000000    -7.075000000
C     4.665000000     2.016000000    -6.049000000
H     4.475000000     2.542000000    -6.981000000
C     4.985000000     2.749000000    -4.876000000
H     4.977000000     3.834000000    -4.811000000
C     5.309000000     1.967000000    -3.730000000
C     5.258000000     0.559000000    -3.716000000
H     5.358000000    -0.028000000    -2.806000000
C     2.551000000     0.217000000    -0.328000000
H     3.444000000     0.324000000    -0.938000000
C     1.286000000     0.318000000    -0.978000000
H     1.168000000     0.560000000    -2.031000000
C     0.136000000     0.109000000    -0.186000000
H    -0.798000000     0.188000000    -0.566000000
C     0.240000000    -0.155000000     1.224000000
H    -0.675000000    -0.291000000     1.794000000
C     1.483000000    -0.313000000     1.870000000
H     1.571000000    -0.658000000     2.898000000
C     2.691000000    -0.173000000     1.042000000
C     4.087000000    -0.253000000     1.639000000
O     4.264000000    -0.556000000     2.748000000
O     5.112000000    -0.158000000     1.000000000
O     5.121000000    -3.767000000     1.390000000
H     4.577000000    -2.983000000     1.314000000
H     6.019000000    -3.439000000     1.358000000
O     6.461000000    -1.450000000     4.108000000
H     6.505000000    -0.852000000     4.855000000
H     5.610000000    -1.270000000     3.707000000
O     8.626000000     2.671000000    -0.791000000
H     9.358000000     2.263000000    -0.328000000
H     8.840000000     3.604000000    -0.804000000
O     8.667000000    -3.820000000    -0.497000000
H     9.617000000    -3.827000000    -0.374000000
H     8.335000000    -3.296000000     0.232000000
O     4.277000000    -0.647000000     7.473000000
H     3.817000000    -1.020000000     8.225000000
H     3.856000000    -1.046000000     6.712000000
O     7.868000000     3.135000000     2.745000000
H     7.263000000     2.939000000     2.029000000
H     8.706000000     2.773000000     2.457000000
O     5.630000000    -3.181000000     6.791000000
H     4.730000000    -3.347000000     7.071000000
H     5.596000000    -2.321000000     6.372000000
O     2.660000000    -4.216000000     4.924000000
H     2.241000000    -4.669000000     5.656000000
H     3.215000000    -4.881000000     4.516000000
O     8.028000000    -2.115000000    -2.868000000
H     8.665000000    -2.626000000    -2.368000000
H     7.552000000    -1.613000000    -2.207000000
O     7.934000000    -2.944000000     2.492000000
H     7.499000000    -2.393000000     3.143000000
H     8.809000000    -3.092000000     2.851000000
O     6.465000000     3.611000000     5.339000000
H     5.779000000     2.972000000     5.144000000
H     7.282000000     3.127000000     5.221000000
O     4.653000000    -5.813000000     3.149000000
H     4.515000000    -6.457000000     2.455000000
H     4.726000000    -4.976000000     2.689000000
O     7.018000000    -0.844000000    -0.789000000
H     7.755000000    -0.464000000    -0.311000000
H     6.251000000    -0.626000000    -0.261000000
O     5.007000000     1.435000000     4.576000000
H     4.147000000     1.792000000     4.798000000
H     4.839000000     0.843000000     3.844000000
O     9.926000000     0.793000000     3.305000000
H     9.958000000     0.393000000     4.174000000
H     9.234000000     0.317000000     2.847000000
O     6.931000000     0.202000000     6.307000000
H     6.628000000     0.935000000     5.770000000
H     6.209000000     0.034000000     6.912000000
O     7.787000000    -0.059000000     2.055000000
H     7.614000000    -0.973000000     2.280000000
H     6.918000000     0.326000000     1.935000000
O     6.311000000     2.363000000     0.768000000
H     6.994000000     2.157000000     0.130000000
H     5.779000000     1.568000000     0.814000000
O     3.235000000    -1.466000000     5.175000000
H     2.975000000    -2.383000000     5.097000000
H     3.098000000    -1.103000000     4.300000000
