215
-1456.01084
C    -1.610000000     2.246000000     4.774000000
H    -2.605000000     2.054000000     5.166000000
C    -1.354000000     2.647000000     3.466000000
C    -0.087000000     3.069000000     3.076000000
H     0.089000000     3.420000000     2.062000000
C    -2.426000000     2.607000000     2.404000000
O    -3.653000000     2.030000000     3.005000000
H    -2.093000000     1.935000000     1.599000000
O    -2.697000000     3.836000000     1.771000000
C    -2.782000000     3.793000000     0.415000000
C    -1.628000000     4.135000000    -0.310000000
H    -0.798000000     4.559000000     0.251000000
C    -1.490000000     3.856000000    -1.673000000
O    -0.285000000     4.254000000    -2.283000000
C    -2.572000000     3.322000000    -2.382000000
C    -2.525000000     2.946000000    -3.935000000
H    -3.564000000     2.829000000    -4.250000000
C    -1.783000000     1.679000000    -4.217000000
C    -2.456000000     0.435000000    -4.345000000
H    -3.521000000     0.418000000    -4.130000000
H    -2.122000000     3.766000000    -4.533000000
C    -3.732000000     3.005000000    -1.668000000
H    -4.637000000     2.688000000    -2.179000000
C    -3.845000000     3.198000000    -0.283000000
C    -5.050000000     2.670000000     0.511000000
H    -5.985000000     2.748000000    -0.047000000
H    -5.212000000     3.258000000     1.417000000
C    -4.869000000     1.261000000     1.029000000
C    -5.311000000     0.160000000     0.228000000
H    -5.740000000     0.353000000    -0.752000000
C    -4.213000000     1.002000000     2.226000000
C    -4.044000000    -0.235000000     2.729000000
H    -3.671000000    -0.294000000     3.748000000
C    -4.444000000    -1.311000000     1.914000000
O    -4.043000000    -2.585000000     2.272000000
C    -2.769000000    -3.024000000     1.660000000
C    -1.778000000    -3.431000000     2.731000000
C    -0.568000000    -3.963000000     2.336000000
H    -0.453000000    -4.125000000     1.268000000
C    -2.078000000    -3.213000000     4.097000000
H    -3.020000000    -2.783000000     4.429000000
O    -2.976000000    -4.038000000     0.666000000
H    -2.315000000    -2.114000000     1.240000000
C    -4.997000000    -1.149000000     0.603000000
C    -5.212000000    -2.312000000    -0.261000000
H    -6.138000000    -2.168000000    -0.821000000
H    -5.608000000    -3.137000000     0.334000000
C    -3.924000000    -2.611000000    -1.084000000
C    -3.802000000    -2.028000000    -2.380000000
H    -4.636000000    -1.481000000    -2.813000000
C    -2.933000000    -3.507000000    -0.597000000
C    -1.772000000    -3.805000000    -1.358000000
H    -1.009000000    -4.500000000    -1.018000000
C    -1.661000000    -3.219000000    -2.619000000
O    -0.464000000    -3.506000000    -3.191000000
C     0.443000000    -2.423000000    -3.321000000
C     1.913000000    -2.827000000    -3.147000000
C     2.219000000    -3.792000000    -2.234000000
H     1.368000000    -4.349000000    -1.850000000
C     3.006000000    -2.111000000    -3.749000000
H     2.825000000    -1.210000000    -4.331000000
O     0.314000000    -1.793000000    -4.618000000
H     0.183000000    -1.724000000    -2.512000000
C    -2.679000000    -2.400000000    -3.134000000
C    -2.572000000    -1.958000000    -4.517000000
H    -3.544000000    -1.873000000    -5.007000000
H    -2.033000000    -2.745000000    -5.048000000
C    -1.806000000    -0.720000000    -4.519000000
C    -0.399000000    -0.668000000    -4.574000000
C     0.306000000     0.533000000    -4.548000000
H     1.390000000     0.543000000    -4.633000000
C    -0.404000000     1.737000000    -4.355000000
O     0.341000000     2.913000000    -4.097000000
C     0.597000000     3.186000000    -2.700000000
H     0.336000000     2.218000000    -2.248000000
C     2.034000000     3.549000000    -2.666000000
C     2.486000000     4.321000000    -1.567000000
H     1.816000000     4.788000000    -0.850000000
C     2.971000000     3.050000000    -3.593000000
H     2.648000000     2.382000000    -4.388000000
C     4.296000000     3.432000000    -3.507000000
O     5.116000000     3.045000000    -4.525000000
C     4.742000000     4.170000000    -2.431000000
H     5.805000000     4.394000000    -2.401000000
C     3.907000000     4.517000000    -1.403000000
O     4.461000000     5.090000000    -0.273000000
C     3.852000000     5.257000000     0.977000000
C     3.279000000     4.212000000     1.672000000
H     3.077000000     3.233000000     1.245000000
C     3.965000000     6.559000000     1.535000000
H     4.475000000     7.379000000     1.036000000
C     3.637000000     6.700000000     2.884000000
H     3.833000000     7.646000000     3.382000000
C     3.095000000     5.603000000     3.616000000
H     2.842000000     5.749000000     4.663000000
C     2.789000000     4.397000000     2.940000000
O     2.220000000     3.354000000     3.684000000
C     0.960000000     2.917000000     3.980000000
C     0.707000000     2.482000000     5.265000000
H     1.508000000     2.271000000     5.969000000
C    -0.572000000     2.082000000     5.646000000
O    -0.836000000     1.661000000     6.922000000
C    -1.424000000     0.435000000     7.193000000
C    -1.062000000    -0.715000000     6.469000000
H    -0.384000000    -0.604000000     5.627000000
C    -2.166000000     0.363000000     8.353000000
H    -2.376000000     1.246000000     8.951000000
C    -2.758000000    -0.828000000     8.658000000
H    -3.394000000    -0.815000000     9.540000000
C    -2.518000000    -1.936000000     7.913000000
H    -2.939000000    -2.898000000     8.194000000
C    -1.603000000    -1.921000000     6.845000000
O    -1.256000000    -3.132000000     6.318000000
C    -1.041000000    -3.434000000     5.039000000
C     0.175000000    -3.874000000     4.641000000
H     1.000000000    -4.022000000     5.333000000
C     0.422000000    -4.165000000     3.293000000
O     1.711000000    -4.517000000     2.849000000
C     1.917000000    -5.406000000     1.839000000
C     3.080000000    -5.288000000     0.998000000
H     3.801000000    -4.498000000     1.190000000
C     0.893000000    -6.288000000     1.348000000
H    -0.026000000    -6.377000000     1.921000000
C     1.132000000    -7.105000000     0.228000000
H     0.361000000    -7.820000000    -0.047000000
C     2.176000000    -6.844000000    -0.574000000
H     2.180000000    -7.337000000    -1.542000000
C     3.097000000    -5.858000000    -0.239000000
O     3.867000000    -5.366000000    -1.224000000
C     3.510000000    -4.221000000    -1.966000000
C     4.567000000    -3.540000000    -2.576000000
H     5.572000000    -3.886000000    -2.349000000
C     4.324000000    -2.452000000    -3.400000000
O     5.405000000    -1.729000000    -3.927000000
C     5.405000000    -0.672000000    -4.768000000
C     5.994000000    -0.797000000    -6.033000000
H     6.218000000    -1.714000000    -6.572000000
C     6.161000000     0.355000000    -6.854000000
H     6.698000000     0.204000000    -7.788000000
C     5.844000000     1.622000000    -6.336000000
H     6.135000000     2.490000000    -6.923000000
C     5.316000000     1.732000000    -5.049000000
C     5.143000000     0.592000000    -4.250000000
H     4.732000000     0.659000000    -3.246000000
C     2.682000000    -0.062000000     0.287000000
H     3.579000000     0.085000000    -0.310000000
C     1.504000000    -0.028000000    -0.447000000
H     1.485000000     0.049000000    -1.531000000
C     0.305000000     0.001000000     0.209000000
H    -0.617000000     0.016000000    -0.396000000
C     0.259000000     0.054000000     1.581000000
H    -0.648000000     0.167000000     2.169000000
C     1.379000000    -0.190000000     2.327000000
H     1.332000000    -0.214000000     3.413000000
C     2.664000000    -0.201000000     1.677000000
C     3.871000000    -0.125000000     2.491000000
O     3.800000000     0.070000000     3.662000000
O     4.996000000     0.008000000     1.994000000
O     5.396000000    -3.657000000     4.191000000
H     5.261000000    -4.602000000     4.131000000
H     5.486000000    -3.369000000     3.283000000
O     6.014000000    -2.580000000     1.426000000
H     5.375000000    -1.903000000     1.648000000
H     6.854000000    -2.121000000     1.412000000
O     1.693000000    -0.738000000     8.565000000
H     1.823000000     0.081000000     9.042000000
H     1.668000000    -0.478000000     7.644000000
O     7.874000000     2.526000000     2.217000000
H     8.142000000     2.971000000     1.413000000
H     7.629000000     3.235000000     2.812000000
O     8.018000000     0.081000000     7.531000000
H     7.155000000     0.002000000     7.124000000
H     8.062000000    -0.652000000     8.144000000
O     4.629000000    -1.095000000     7.881000000
H     4.794000000    -1.017000000     6.942000000
H     3.679000000    -1.198000000     7.949000000
O     3.289000000    -2.905000000     5.642000000
H     3.119000000    -2.056000000     5.234000000
H     4.062000000    -3.238000000     5.188000000
O     6.647000000    -0.100000000    -1.493000000
H     5.938000000    -0.543000000    -1.960000000
H     6.201000000     0.480000000    -0.876000000
O     6.677000000    -5.082000000     1.066000000
H     6.321000000    -4.202000000     1.182000000
H     7.033000000    -5.312000000     1.925000000
O     6.236000000     4.996000000     3.873000000
H     5.583000000     4.321000000     4.056000000
H     6.042000000     5.693000000     4.500000000
O     4.757000000    -6.262000000     3.574000000
H     4.343000000    -6.042000000     4.408000000
H     4.119000000    -6.820000000     3.129000000
O     5.577000000     1.849000000    -0.275000000
H     6.465000000     2.091000000    -0.012000000
H     5.221000000     1.384000000     0.482000000
O     5.371000000     2.373000000     4.703000000
H     4.653000000     1.988000000     4.202000000
H     6.139000000     1.858000000     4.457000000
O     7.726000000    -0.111000000     1.804000000
H     7.898000000     0.825000000     1.906000000
H     6.820000000    -0.220000000     2.094000000
O     3.363000000    -4.042000000     8.244000000
H     2.411000000    -4.138000000     8.270000000
H     3.536000000    -3.589000000     7.419000000
O     4.042000000     1.623000000     7.081000000
H     4.603000000     1.909000000     7.802000000
H     4.480000000     1.948000000     6.294000000
O    10.243000000    -1.637000000     0.740000000
H    10.461000000    -0.708000000     0.670000000
H     9.454000000    -1.658000000     1.281000000
O     2.473000000    -0.162000000     5.949000000
H     2.856000000     0.645000000     6.294000000
H     2.776000000    -0.202000000     5.042000000
O     5.771000000    -1.255000000     5.374000000
H     6.000000000    -2.094000000     4.975000000
H     5.466000000    -0.717000000     4.642000000
