215
-1457.05117
C    -0.196000000     2.303000000     4.676000000
H    -1.103000000     1.710000000     4.759000000
C    -0.057000000     3.165000000     3.648000000
C     1.126000000     3.895000000     3.454000000
H     1.124000000     4.585000000     2.614000000
C    -1.182000000     3.269000000     2.591000000
O    -2.491000000     3.061000000     3.127000000
H    -0.963000000     2.546000000     1.791000000
O    -1.193000000     4.602000000     1.957000000
C    -1.370000000     4.557000000     0.569000000
C    -0.143000000     4.525000000    -0.109000000
H     0.804000000     4.700000000     0.396000000
C    -0.107000000     4.390000000    -1.477000000
O     1.139000000     4.365000000    -2.065000000
C    -1.281000000     4.316000000    -2.243000000
C    -1.236000000     4.035000000    -3.739000000
H    -2.074000000     4.490000000    -4.271000000
C    -0.994000000     2.565000000    -4.069000000
C    -2.097000000     1.700000000    -4.119000000
H    -3.096000000     2.127000000    -4.106000000
H    -0.357000000     4.602000000    -4.053000000
C    -2.516000000     4.323000000    -1.569000000
H    -3.413000000     4.234000000    -2.176000000
C    -2.548000000     4.322000000    -0.163000000
C    -3.877000000     4.170000000     0.666000000
H    -4.707000000     4.399000000    -0.006000000
H    -3.900000000     4.811000000     1.550000000
C    -3.947000000     2.739000000     1.163000000
C    -4.740000000     1.843000000     0.421000000
H    -5.364000000     2.126000000    -0.423000000
C    -3.242000000     2.253000000     2.288000000
C    -3.306000000     0.931000000     2.597000000
H    -2.890000000     0.503000000     3.506000000
C    -4.096000000     0.021000000     1.853000000
O    -4.056000000    -1.293000000     2.312000000
C    -3.199000000    -2.204000000     1.554000000
C    -2.398000000    -3.164000000     2.429000000
C    -1.907000000    -4.379000000     1.874000000
H    -2.085000000    -4.699000000     0.850000000
C    -2.017000000    -2.745000000     3.702000000
H    -2.381000000    -1.796000000     4.088000000
O    -3.972000000    -2.853000000     0.511000000
H    -2.484000000    -1.555000000     1.028000000
C    -4.707000000     0.469000000     0.693000000
C    -5.522000000    -0.552000000    -0.116000000
H    -6.282000000     0.057000000    -0.611000000
H    -6.081000000    -1.209000000     0.553000000
C    -4.615000000    -1.261000000    -1.085000000
C    -4.305000000    -0.694000000    -2.337000000
H    -4.879000000     0.185000000    -2.620000000
C    -3.960000000    -2.498000000    -0.807000000
C    -3.037000000    -3.056000000    -1.673000000
H    -2.502000000    -3.942000000    -1.343000000
C    -2.836000000    -2.489000000    -2.923000000
O    -1.869000000    -3.005000000    -3.680000000
C    -0.579000000    -2.383000000    -3.612000000
C     0.505000000    -3.441000000    -3.277000000
C     0.215000000    -4.796000000    -2.906000000
H    -0.803000000    -5.175000000    -2.949000000
C     1.896000000    -3.055000000    -3.211000000
H     2.143000000    -2.037000000    -3.501000000
O    -0.353000000    -1.484000000    -4.770000000
H    -0.570000000    -1.783000000    -2.690000000
C    -3.403000000    -1.230000000    -3.203000000
C    -3.084000000    -0.525000000    -4.501000000
H    -3.863000000     0.133000000    -4.890000000
H    -2.985000000    -1.191000000    -5.361000000
C    -1.898000000     0.331000000    -4.367000000
C    -0.661000000    -0.150000000    -4.678000000
C     0.435000000     0.661000000    -4.373000000
H     1.425000000     0.214000000    -4.414000000
C     0.303000000     2.033000000    -4.194000000
O     1.490000000     2.756000000    -3.924000000
C     1.721000000     3.060000000    -2.502000000
H     1.186000000     2.263000000    -1.965000000
C     3.159000000     2.906000000    -2.125000000
C     3.690000000     3.581000000    -1.035000000
H     3.108000000     4.251000000    -0.408000000
C     3.929000000     1.886000000    -2.722000000
H     3.557000000     1.420000000    -3.631000000
C     5.257000000     1.611000000    -2.368000000
O     6.178000000     0.841000000    -3.158000000
C     5.799000000     2.355000000    -1.360000000
H     6.839000000     2.198000000    -1.086000000
C     4.985000000     3.264000000    -0.616000000
O     5.554000000     4.032000000     0.403000000
C     4.855000000     4.777000000     1.328000000
C     4.301000000     4.316000000     2.516000000
H     4.276000000     3.259000000     2.771000000
C     4.796000000     6.148000000     1.090000000
H     5.124000000     6.400000000     0.084000000
C     4.230000000     7.028000000     1.990000000
H     4.164000000     8.090000000     1.770000000
C     3.809000000     6.583000000     3.186000000
H     3.362000000     7.226000000     3.940000000
C     3.804000000     5.197000000     3.459000000
O     3.172000000     4.637000000     4.553000000
C     2.064000000     3.870000000     4.444000000
C     1.950000000     2.948000000     5.494000000
H     2.789000000     2.851000000     6.178000000
C     0.844000000     2.147000000     5.591000000
O     0.828000000     1.239000000     6.596000000
C    -0.170000000     0.310000000     6.680000000
C    -0.115000000    -0.859000000     5.934000000
H     0.773000000    -1.029000000     5.331000000
C    -1.316000000     0.583000000     7.381000000
H    -1.403000000     1.557000000     7.856000000
C    -2.390000000    -0.305000000     7.376000000
H    -3.198000000     0.044000000     8.013000000
C    -2.287000000    -1.541000000     6.719000000
H    -3.069000000    -2.296000000     6.740000000
C    -1.101000000    -1.898000000     6.134000000
O    -0.898000000    -3.182000000     5.726000000
C    -1.326000000    -3.558000000     4.546000000
C    -0.964000000    -4.789000000     3.996000000
H    -0.348000000    -5.404000000     4.646000000
C    -1.148000000    -5.181000000     2.686000000
O    -0.539000000    -6.358000000     2.231000000
C    -0.696000000    -6.904000000     0.949000000
C     0.116000000    -6.461000000    -0.134000000
H     0.676000000    -5.529000000    -0.116000000
C    -1.374000000    -8.101000000     0.881000000
H    -1.964000000    -8.518000000     1.693000000
C    -1.338000000    -8.886000000    -0.277000000
H    -1.945000000    -9.768000000    -0.468000000
C    -0.542000000    -8.404000000    -1.358000000
H    -0.477000000    -9.066000000    -2.218000000
C     0.133000000    -7.198000000    -1.304000000
O     0.995000000    -6.959000000    -2.283000000
C     1.239000000    -5.671000000    -2.696000000
C     2.557000000    -5.276000000    -2.715000000
H     3.345000000    -5.997000000    -2.515000000
C     2.871000000    -3.971000000    -2.925000000
O     4.237000000    -3.593000000    -2.878000000
C     4.667000000    -2.476000000    -3.659000000
C     4.595000000    -2.550000000    -5.030000000
H     4.116000000    -3.378000000    -5.546000000
C     5.151000000    -1.591000000    -5.818000000
H     5.164000000    -1.647000000    -6.903000000
C     5.724000000    -0.424000000    -5.153000000
H     6.221000000     0.311000000    -5.782000000
C     5.630000000    -0.281000000    -3.772000000
C     5.170000000    -1.317000000    -3.048000000
H     5.055000000    -1.234000000    -1.970000000
C     3.074000000     0.025000000     0.084000000
H     3.944000000    -0.137000000    -0.547000000
C     1.884000000    -0.059000000    -0.597000000
H     1.804000000    -0.300000000    -1.654000000
C     0.681000000     0.190000000     0.054000000
H    -0.197000000     0.119000000    -0.575000000
C     0.617000000     0.472000000     1.414000000
H    -0.319000000     0.563000000     1.958000000
C     1.837000000     0.535000000     2.125000000
H     1.814000000     0.688000000     3.201000000
C     3.050000000     0.247000000     1.451000000
C     4.333000000     0.270000000     2.255000000
O     4.376000000     0.307000000     3.487000000
O     5.421000000     0.208000000     1.743000000
O     5.563000000    -4.183000000     3.525000000
H     4.998000000    -3.425000000     3.673000000
H     6.073000000    -3.954000000     2.748000000
O     3.862000000    -5.792000000     0.801000000
H     3.366000000    -5.007000000     1.035000000
H     4.763000000    -5.484000000     0.701000000
O     6.537000000    -2.220000000     1.545000000
H     6.169000000    -1.338000000     1.608000000
H     7.483000000    -2.089000000     1.604000000
O     9.386000000     1.758000000     3.964000000
H     8.719000000     1.203000000     4.368000000
H     9.079000000     2.651000000     4.118000000
O     2.590000000    -3.502000000     2.022000000
H     2.836000000    -2.947000000     2.761000000
H     2.331000000    -2.887000000     1.336000000
O     6.660000000     3.346000000     4.647000000
H     6.105000000     3.424000000     5.423000000
H     6.795000000     2.404000000     4.543000000
O     6.517000000    -4.868000000     0.548000000
H     7.290000000    -5.322000000     0.882000000
H     6.653000000    -3.953000000     0.792000000
O     7.353000000    -1.572000000     6.382000000
H     7.807000000    -2.415000000     6.380000000
H     6.510000000    -1.755000000     6.797000000
O     7.978000000     1.038000000     1.490000000
H     8.229000000     0.754000000     2.369000000
H     7.133000000     0.616000000     1.333000000
O     8.825000000     4.942000000     4.099000000
H     8.449000000     5.644000000     3.568000000
H     8.099000000     4.334000000     4.240000000
O     6.915000000     0.518000000     4.500000000
H     6.100000000     0.435000000     4.004000000
H     6.870000000    -0.180000000     5.153000000
O     9.082000000     0.800000000    -1.015000000
H     8.751000000     0.982000000    -0.135000000
H     8.626000000     0.003000000    -1.283000000
O     8.331000000    -2.318000000    -1.577000000
H     7.660000000    -2.832000000    -1.129000000
H     9.155000000    -2.748000000    -1.347000000
O     9.196000000    -1.820000000     1.599000000
H     9.898000000    -2.358000000     1.964000000
H     9.644000000    -1.054000000     1.239000000
O     9.369000000     3.602000000     0.530000000
H     8.637000000     3.005000000     0.683000000
H     9.059000000     4.448000000     0.853000000
O     2.683000000    -5.038000000     4.526000000
H     3.537000000    -5.182000000     4.119000000
H     2.205000000    -4.498000000     3.897000000
O     3.882000000     0.400000000     5.998000000
H     2.954000000     0.628000000     6.054000000
H     4.062000000     0.360000000     5.059000000
O     4.944000000    -1.270000000     7.752000000
H     4.200000000    -1.801000000     8.037000000
H     4.558000000    -0.601000000     7.186000000
O     3.531000000    -2.213000000     3.978000000
H     3.353000000    -2.238000000     4.918000000
H     3.980000000    -1.378000000     3.842000000
