215
-1474.68462
C    -1.763000000     2.234000000     4.607000000
H    -2.773000000     1.833000000     4.636000000
C    -1.219000000     3.044000000     3.557000000
C     0.028000000     3.641000000     3.720000000
H     0.428000000     4.286000000     2.942000000
C    -1.970000000     3.117000000     2.259000000
O    -3.420000000     2.876000000     2.424000000
H    -1.620000000     2.345000000     1.559000000
O    -1.692000000     4.390000000     1.561000000
C    -1.542000000     4.347000000     0.157000000
C    -0.225000000     4.487000000    -0.231000000
H     0.552000000     4.634000000     0.515000000
C     0.007000000     4.349000000    -1.553000000
O     1.367000000     4.396000000    -1.751000000
C    -1.037000000     4.202000000    -2.492000000
C    -0.649000000     3.962000000    -3.925000000
H    -1.491000000     4.150000000    -4.594000000
C    -0.343000000     2.497000000    -4.154000000
C    -1.317000000     1.570000000    -4.550000000
H    -2.331000000     1.920000000    -4.730000000
H     0.156000000     4.623000000    -4.253000000
C    -2.338000000     4.062000000    -2.058000000
H    -3.138000000     3.830000000    -2.757000000
C    -2.595000000     4.207000000    -0.736000000
C    -4.044000000     4.016000000    -0.276000000
H    -4.681000000     4.264000000    -1.126000000
H    -4.321000000     4.684000000     0.542000000
C    -4.219000000     2.535000000     0.094000000
C    -4.568000000     1.581000000    -0.834000000
H    -4.629000000     1.867000000    -1.881000000
C    -3.901000000     2.096000000     1.442000000
C    -3.939000000     0.741000000     1.742000000
H    -3.702000000     0.447000000     2.761000000
C    -4.372000000    -0.195000000     0.790000000
O    -4.371000000    -1.470000000     1.211000000
C    -3.346000000    -2.365000000     0.752000000
C    -2.825000000    -3.231000000     1.833000000
C    -2.099000000    -4.378000000     1.487000000
H    -1.883000000    -4.554000000     0.437000000
C    -2.778000000    -2.752000000     3.132000000
H    -3.291000000    -1.834000000     3.407000000
O    -3.783000000    -3.189000000    -0.417000000
H    -2.460000000    -1.829000000     0.380000000
C    -4.759000000     0.199000000    -0.462000000
C    -5.245000000    -0.832000000    -1.402000000
H    -5.778000000    -0.406000000    -2.254000000
H    -5.892000000    -1.523000000    -0.857000000
C    -4.077000000    -1.551000000    -2.165000000
C    -3.580000000    -0.948000000    -3.331000000
H    -3.976000000    -0.003000000    -3.694000000
C    -3.463000000    -2.707000000    -1.676000000
C    -2.486000000    -3.321000000    -2.378000000
H    -2.059000000    -4.273000000    -2.071000000
C    -1.889000000    -2.671000000    -3.481000000
O    -0.668000000    -3.147000000    -3.881000000
C     0.510000000    -2.376000000    -3.623000000
C     1.697000000    -3.235000000    -3.164000000
C     1.355000000    -4.426000000    -2.520000000
H     0.341000000    -4.796000000    -2.392000000
C     3.037000000    -2.782000000    -3.205000000
H     3.269000000    -1.822000000    -3.658000000
O     0.723000000    -1.481000000    -4.771000000
H     0.172000000    -1.717000000    -2.810000000
C    -2.498000000    -1.515000000    -3.960000000
C    -2.017000000    -0.772000000    -5.207000000
H    -2.905000000    -0.358000000    -5.688000000
H    -1.468000000    -1.349000000    -5.955000000
C    -1.016000000     0.231000000    -4.744000000
C     0.351000000    -0.151000000    -4.639000000
C     1.336000000     0.722000000    -4.240000000
H     2.383000000     0.435000000    -4.193000000
C     0.975000000     2.049000000    -3.832000000
O     1.957000000     2.882000000    -3.427000000
C     2.016000000     3.171000000    -2.023000000
H     1.595000000     2.262000000    -1.569000000
C     3.357000000     3.010000000    -1.424000000
C     3.607000000     3.577000000    -0.235000000
H     2.896000000     4.216000000     0.282000000
C     4.371000000     2.354000000    -2.146000000
H     4.122000000     1.794000000    -3.044000000
C     5.591000000     2.111000000    -1.497000000
O     6.583000000     1.384000000    -2.097000000
C     5.745000000     2.551000000    -0.208000000
H     6.701000000     2.370000000     0.276000000
C     4.810000000     3.341000000     0.394000000
O     5.129000000     3.873000000     1.644000000
C     4.394000000     4.601000000     2.570000000
C     3.470000000     4.068000000     3.482000000
H     3.356000000     2.989000000     3.420000000
C     4.546000000     5.997000000     2.576000000
H     5.327000000     6.425000000     1.953000000
C     3.846000000     6.804000000     3.435000000
H     3.885000000     7.890000000     3.443000000
C     2.899000000     6.231000000     4.335000000
H     2.338000000     6.831000000     5.047000000
C     2.781000000     4.852000000     4.413000000
O     1.877000000     4.224000000     5.308000000
C     0.720000000     3.513000000     4.937000000
C     0.164000000     2.713000000     5.942000000
H     0.696000000     2.762000000     6.888000000
C    -1.093000000     2.157000000     5.864000000
O    -1.603000000     1.432000000     6.896000000
C    -2.364000000     0.267000000     6.759000000
C    -1.858000000    -0.963000000     6.267000000
H    -0.786000000    -1.033000000     6.100000000
C    -3.699000000     0.358000000     7.060000000
H    -4.051000000     1.311000000     7.446000000
C    -4.540000000    -0.724000000     6.877000000
H    -5.600000000    -0.693000000     7.115000000
C    -4.049000000    -1.977000000     6.420000000
H    -4.707000000    -2.827000000     6.257000000
C    -2.705000000    -2.018000000     5.987000000
O    -2.179000000    -3.203000000     5.466000000
C    -2.160000000    -3.553000000     4.075000000
C    -1.562000000    -4.772000000     3.765000000
H    -1.127000000    -5.354000000     4.573000000
C    -1.499000000    -5.154000000     2.496000000
O    -0.600000000    -6.208000000     2.348000000
C    -0.331000000    -6.741000000     1.079000000
C     0.638000000    -6.174000000     0.282000000
H     1.033000000    -5.194000000     0.540000000
C    -0.851000000    -8.008000000     0.784000000
H    -1.644000000    -8.365000000     1.436000000
C    -0.431000000    -8.727000000    -0.301000000
H    -0.954000000    -9.672000000    -0.427000000
C     0.622000000    -8.191000000    -1.116000000
H     1.016000000    -8.687000000    -2.000000000
C     1.056000000    -6.879000000    -0.870000000
O     2.079000000    -6.463000000    -1.631000000
C     2.363000000    -5.173000000    -2.002000000
C     3.727000000    -4.858000000    -2.145000000
H     4.463000000    -5.598000000    -1.843000000
C     4.008000000    -3.643000000    -2.762000000
O     5.335000000    -3.257000000    -2.666000000
C     5.767000000    -2.038000000    -3.186000000
C     5.933000000    -1.870000000    -4.600000000
H     5.743000000    -2.621000000    -5.363000000
C     6.223000000    -0.612000000    -5.132000000
H     6.271000000    -0.525000000    -6.215000000
C     6.328000000     0.539000000    -4.328000000
H     6.466000000     1.498000000    -4.821000000
C     6.349000000     0.327000000    -2.909000000
C     6.038000000    -0.924000000    -2.375000000
H     5.922000000    -0.886000000    -1.295000000
C     2.887000000    -0.186000000     0.145000000
H     3.808000000    -0.505000000    -0.336000000
C     1.725000000    -0.063000000    -0.577000000
H     1.727000000    -0.209000000    -1.655000000
C     0.549000000     0.213000000     0.040000000
H    -0.334000000     0.229000000    -0.480000000
C     0.578000000     0.567000000     1.403000000
H    -0.317000000     0.801000000     1.973000000
C     1.808000000     0.658000000     2.078000000
H     1.879000000     0.829000000     3.149000000
C     2.981000000     0.133000000     1.475000000
C     4.302000000    -0.029000000     2.227000000
O     4.449000000     0.420000000     3.324000000
O     5.177000000    -0.676000000     1.671000000
O     9.878000000     2.745000000     0.696000000
H     9.434000000     2.358000000     1.450000000
H     9.482000000     3.612000000     0.603000000
O     6.359000000    -3.942000000     4.299000000
H     5.678000000    -3.722000000     3.664000000
H     5.999000000    -3.668000000     5.142000000
O     3.498000000    -6.026000000     2.087000000
H     3.397000000    -5.218000000     1.585000000
H     3.036000000    -5.857000000     2.908000000
O     3.626000000    -3.156000000     0.716000000
H     4.149000000    -2.420000000     1.035000000
H     4.095000000    -3.464000000    -0.060000000
O     9.035000000    -2.431000000     4.462000000
H     8.158000000    -2.047000000     4.488000000
H     8.967000000    -3.219000000     5.001000000
O     1.186000000    -2.835000000     2.202000000
H     0.919000000    -2.009000000     2.605000000
H     1.861000000    -2.588000000     1.571000000
O     6.242000000     2.446000000     3.891000000
H     5.795000000     1.604000000     3.807000000
H     5.814000000     3.011000000     3.248000000
O     3.329000000     0.475000000     7.693000000
H     3.572000000     0.075000000     8.528000000
H     3.648000000     1.375000000     7.757000000
O     6.066000000    -4.743000000     0.941000000
H     6.731000000    -4.165000000     1.316000000
H     5.712000000    -5.220000000     1.692000000
O     7.368000000     0.488000000     7.087000000
H     6.450000000     0.458000000     6.815000000
H     7.862000000     0.437000000     6.269000000
O     7.612000000    -0.802000000     0.723000000
H     7.742000000    -1.720000000     0.961000000
H     6.724000000    -0.601000000     1.020000000
O     9.326000000     0.319000000     5.105000000
H     9.065000000     0.329000000     4.184000000
H     9.706000000    -0.550000000     5.236000000
O     6.730000000    -0.911000000     3.982000000
H     6.126000000    -0.883000000     3.240000000
H     6.171000000    -0.807000000     4.751000000
O     9.437000000    -0.979000000    -1.649000000
H     9.591000000    -0.040000000    -1.757000000
H     8.758000000    -1.034000000    -0.977000000
O     8.397000000    -3.251000000     1.696000000
H     8.701000000    -3.084000000     2.588000000
H     9.175000000    -3.129000000     1.152000000
O     8.498000000     1.389000000     2.574000000
H     7.902000000     0.770000000     2.151000000
H     8.011000000     1.712000000     3.331000000
O     5.003000000    -0.248000000     5.828000000
H     4.232000000     0.010000000     6.333000000
H     4.750000000    -0.103000000     4.916000000
O     5.274000000    -2.967000000     6.738000000
H     4.449000000    -3.233000000     7.144000000
H     5.171000000    -2.029000000     6.579000000
O     1.666000000    -5.121000000     4.032000000
H     1.362000000    -4.550000000     3.327000000
H     1.147000000    -4.860000000     4.793000000
