215
-1453.26253
C    -0.502000000     1.696000000     4.680000000
H    -1.450000000     1.197000000     4.867000000
C    -0.378000000     2.739000000     3.757000000
C     0.839000000     3.435000000     3.644000000
H     0.931000000     4.289000000     2.978000000
C    -1.425000000     3.040000000     2.716000000
O    -2.795000000     2.660000000     3.119000000
H    -1.214000000     2.238000000     1.993000000
O    -1.497000000     4.398000000     2.124000000
C    -1.704000000     4.487000000     0.725000000
C    -0.494000000     4.683000000     0.007000000
H     0.425000000     4.954000000     0.521000000
C    -0.517000000     4.560000000    -1.399000000
O     0.749000000     4.586000000    -1.984000000
C    -1.700000000     4.276000000    -2.105000000
C    -1.736000000     4.132000000    -3.654000000
H    -2.728000000     4.385000000    -4.035000000
C    -1.308000000     2.666000000    -4.041000000
C    -2.289000000     1.784000000    -4.307000000
H    -3.324000000     2.114000000    -4.282000000
H    -1.013000000     4.823000000    -4.091000000
C    -2.885000000     4.097000000    -1.397000000
H    -3.804000000     3.775000000    -1.880000000
C    -2.881000000     4.158000000     0.019000000
C    -4.120000000     3.872000000     0.858000000
H    -5.028000000     4.115000000     0.303000000
H    -4.172000000     4.454000000     1.781000000
C    -4.184000000     2.364000000     1.218000000
C    -4.915000000     1.479000000     0.405000000
H    -5.392000000     1.850000000    -0.498000000
C    -3.563000000     1.856000000     2.390000000
C    -3.691000000     0.480000000     2.688000000
H    -3.028000000     0.121000000     3.471000000
C    -4.427000000    -0.368000000     1.885000000
O    -4.220000000    -1.710000000     2.208000000
C    -3.257000000    -2.413000000     1.378000000
C    -2.426000000    -3.410000000     2.264000000
C    -2.035000000    -4.618000000     1.677000000
H    -2.291000000    -4.804000000     0.636000000
C    -2.119000000    -3.176000000     3.583000000
H    -2.523000000    -2.244000000     3.971000000
O    -3.920000000    -3.166000000     0.301000000
H    -2.458000000    -1.745000000     1.025000000
C    -4.966000000     0.097000000     0.676000000
C    -5.636000000    -0.822000000    -0.317000000
H    -6.394000000    -0.244000000    -0.851000000
H    -6.261000000    -1.560000000     0.190000000
C    -4.619000000    -1.460000000    -1.277000000
C    -4.490000000    -0.853000000    -2.528000000
H    -5.095000000     0.031000000    -2.715000000
C    -3.899000000    -2.573000000    -0.965000000
C    -2.928000000    -3.065000000    -1.835000000
H    -2.474000000    -3.947000000    -1.391000000
C    -2.595000000    -2.379000000    -2.959000000
O    -1.566000000    -2.835000000    -3.699000000
C    -0.312000000    -2.099000000    -3.681000000
C     0.951000000    -2.981000000    -3.583000000
C     1.050000000    -3.941000000    -2.579000000
H     0.172000000    -4.072000000    -1.952000000
C     2.120000000    -2.737000000    -4.382000000
H     2.167000000    -1.940000000    -5.119000000
O    -0.331000000    -1.263000000    -4.865000000
H    -0.212000000    -1.474000000    -2.781000000
C    -3.392000000    -1.280000000    -3.355000000
C    -3.189000000    -0.571000000    -4.646000000
H    -4.176000000    -0.169000000    -4.884000000
H    -3.002000000    -1.291000000    -5.446000000
C    -1.967000000     0.445000000    -4.644000000
C    -0.642000000     0.049000000    -4.682000000
C     0.374000000     0.990000000    -4.535000000
H     1.420000000     0.730000000    -4.679000000
C     0.050000000     2.286000000    -4.128000000
O     1.119000000     3.105000000    -3.725000000
C     1.365000000     3.354000000    -2.337000000
H     1.020000000     2.559000000    -1.659000000
C     2.874000000     3.363000000    -2.096000000
C     3.398000000     4.158000000    -1.125000000
H     2.849000000     5.076000000    -0.931000000
C     3.583000000     2.179000000    -2.475000000
H     3.129000000     1.419000000    -3.106000000
C     4.858000000     1.999000000    -1.999000000
O     5.573000000     0.822000000    -2.297000000
C     5.337000000     2.830000000    -1.071000000
H     6.330000000     2.619000000    -0.683000000
C     4.639000000     3.945000000    -0.622000000
O     5.160000000     4.722000000     0.277000000
C     4.497000000     5.220000000     1.352000000
C     4.154000000     4.328000000     2.369000000
H     4.313000000     3.256000000     2.288000000
C     4.406000000     6.601000000     1.526000000
H     4.723000000     7.161000000     0.650000000
C     3.694000000     7.121000000     2.623000000
H     3.363000000     8.151000000     2.729000000
C     3.256000000     6.204000000     3.626000000
H     2.777000000     6.697000000     4.468000000
C     3.480000000     4.821000000     3.469000000
O     3.009000000     3.983000000     4.515000000
C     1.846000000     3.167000000     4.513000000
C     1.676000000     2.175000000     5.440000000
H     2.491000000     2.100000000     6.156000000
C     0.548000000     1.442000000     5.585000000
O     0.445000000     0.497000000     6.607000000
C    -0.487000000    -0.487000000     6.690000000
C    -0.403000000    -1.660000000     5.940000000
H     0.301000000    -1.759000000     5.118000000
C    -1.329000000    -0.425000000     7.796000000
H    -1.287000000     0.506000000     8.357000000
C    -2.164000000    -1.509000000     8.134000000
H    -2.962000000    -1.377000000     8.860000000
C    -2.079000000    -2.685000000     7.407000000
H    -2.704000000    -3.556000000     7.587000000
C    -1.234000000    -2.756000000     6.291000000
O    -1.039000000    -3.952000000     5.632000000
C    -1.387000000    -4.151000000     4.341000000
C    -1.133000000    -5.354000000     3.745000000
H    -0.745000000    -6.182000000     4.332000000
C    -1.473000000    -5.599000000     2.448000000
O    -0.966000000    -6.806000000     1.881000000
C    -0.297000000    -7.084000000     0.769000000
C     0.568000000    -6.125000000     0.285000000
H     0.820000000    -5.277000000     0.916000000
C    -0.453000000    -8.278000000     0.096000000
H    -1.061000000    -9.057000000     0.549000000
C     0.272000000    -8.594000000    -1.026000000
H     0.176000000    -9.622000000    -1.366000000
C     1.252000000    -7.704000000    -1.508000000
H     1.833000000    -8.033000000    -2.366000000
C     1.358000000    -6.411000000    -0.860000000
O     2.398000000    -5.461000000    -1.185000000
C     2.174000000    -4.665000000    -2.297000000
C     3.343000000    -4.393000000    -3.053000000
H     4.251000000    -4.904000000    -2.745000000
C     3.316000000    -3.467000000    -4.117000000
O     4.532000000    -3.034000000    -4.742000000
C     4.937000000    -1.722000000    -4.738000000
C     5.639000000    -1.224000000    -5.826000000
H     5.745000000    -1.884000000    -6.683000000
C     6.222000000     0.031000000    -5.729000000
H     6.862000000     0.426000000    -6.514000000
C     6.205000000     0.690000000    -4.546000000
H     6.664000000     1.635000000    -4.268000000
C     5.535000000     0.166000000    -3.481000000
C     4.903000000    -1.034000000    -3.493000000
H     4.346000000    -1.447000000    -2.656000000
C     2.587000000     0.375000000     0.419000000
H     3.524000000     0.649000000    -0.060000000
C     1.435000000     0.364000000    -0.357000000
H     1.480000000     0.441000000    -1.440000000
C     0.199000000     0.212000000     0.220000000
H    -0.745000000     0.300000000    -0.336000000
C     0.152000000     0.079000000     1.646000000
H    -0.829000000    -0.064000000     2.092000000
C     1.319000000     0.044000000     2.452000000
H     1.286000000    -0.153000000     3.520000000
C     2.542000000     0.180000000     1.829000000
C     3.811000000     0.257000000     2.693000000
O     3.818000000     0.226000000     3.882000000
O     4.873000000     0.409000000     2.120000000
O     5.400000000    -2.342000000     6.974000000
H     4.679000000    -2.479000000     7.587000000
H     4.974000000    -2.084000000     6.156000000
O     4.783000000    -4.191000000     3.058000000
H     5.143000000    -3.363000000     3.374000000
H     4.491000000    -4.001000000     2.166000000
O     4.348000000    -2.798000000     0.526000000
H     4.831000000    -2.026000000     0.818000000
H     5.021000000    -3.390000000     0.191000000
O     2.107000000    -3.710000000     6.677000000
H     2.140000000    -4.202000000     5.857000000
H     2.501000000    -2.864000000     6.465000000
O     1.721000000    -2.824000000     1.153000000
H     1.234000000    -2.058000000     0.849000000
H     2.640000000    -2.570000000     1.074000000
O     4.578000000     4.467000000     7.451000000
H     4.849000000     3.637000000     7.058000000
H     5.085000000     5.130000000     6.983000000
O     7.273000000     1.886000000     2.115000000
H     6.474000000     1.363000000     2.167000000
H     7.569000000     1.963000000     3.022000000
O     8.265000000     4.180000000     0.824000000
H     7.576000000     4.559000000     0.278000000
H     7.889000000     3.363000000     1.151000000
O     7.791000000    -3.718000000     1.918000000
H     7.782000000    -4.371000000     2.618000000
H     7.436000000    -4.178000000     1.157000000
O     7.697000000     2.824000000     4.794000000
H     6.902000000     2.401000000     5.118000000
H     7.457000000     3.746000000     4.701000000
O     6.680000000    -0.745000000     0.695000000
H     6.503000000    -0.250000000    -0.106000000
H     6.064000000    -0.391000000     1.336000000
O     9.461000000     0.161000000     4.996000000
H     8.914000000    -0.102000000     4.256000000
H     9.708000000     1.065000000     4.802000000
O     4.975000000     1.844000000     5.653000000
H     4.613000000     1.896000000     4.768000000
H     4.667000000     1.002000000     5.988000000
O     5.582000000    -1.804000000     4.228000000
H     4.939000000    -1.138000000     3.984000000
H     6.416000000    -1.335000000     4.249000000
O     7.370000000    -3.866000000     5.872000000
H     8.057000000    -3.201000000     5.845000000
H     6.575000000    -3.381000000     6.095000000
O     8.266000000    -1.245000000     2.971000000
H     7.928000000    -0.787000000     2.201000000
H     7.953000000    -2.144000000     2.871000000
O     6.344000000    -4.456000000    -0.338000000
H     6.778000000    -3.784000000    -0.863000000
H     6.494000000    -5.270000000    -0.819000000
O     2.992000000    -1.019000000     6.165000000
H     3.278000000    -0.452000000     5.449000000
H     2.175000000    -0.625000000     6.470000000
O     1.765000000    -3.748000000     3.798000000
H     2.712000000    -3.612000000     3.814000000
H     1.476000000    -3.328000000     2.988000000
