215
-1460.85158
C    -0.540000000     3.004000000     4.206000000
H    -1.388000000     2.417000000     4.550000000
C    -0.492000000     3.628000000     2.924000000
C     0.670000000     4.228000000     2.526000000
H     0.757000000     4.606000000     1.510000000
C    -1.572000000     3.278000000     1.848000000
O    -2.729000000     2.791000000     2.543000000
H    -1.184000000     2.589000000     1.083000000
O    -1.952000000     4.369000000     1.072000000
C    -2.198000000     4.147000000    -0.232000000
C    -1.121000000     4.391000000    -1.053000000
H    -0.233000000     4.898000000    -0.684000000
C    -1.164000000     3.973000000    -2.357000000
O    -0.028000000     4.171000000    -3.138000000
C    -2.303000000     3.366000000    -2.852000000
C    -2.395000000     2.753000000    -4.201000000
H    -3.414000000     2.790000000    -4.590000000
C    -1.810000000     1.382000000    -4.266000000
C    -2.653000000     0.218000000    -4.173000000
H    -3.738000000     0.282000000    -4.162000000
H    -1.882000000     3.416000000    -4.901000000
C    -3.376000000     3.166000000    -2.029000000
H    -4.231000000     2.620000000    -2.421000000
C    -3.363000000     3.580000000    -0.686000000
C    -4.529000000     3.219000000     0.162000000
H    -5.477000000     3.290000000    -0.376000000
H    -4.563000000     4.009000000     0.915000000
C    -4.360000000     1.871000000     0.911000000
C    -5.018000000     0.755000000     0.443000000
H    -5.605000000     0.915000000    -0.458000000
C    -3.418000000     1.740000000     1.956000000
C    -3.358000000     0.532000000     2.646000000
H    -2.845000000     0.581000000     3.603000000
C    -3.937000000    -0.578000000     2.098000000
O    -3.748000000    -1.817000000     2.739000000
C    -2.658000000    -2.581000000     2.212000000
C    -1.767000000    -3.223000000     3.297000000
C    -1.245000000    -4.412000000     3.065000000
H    -1.696000000    -5.104000000     2.359000000
C    -1.068000000    -2.365000000     4.106000000
H    -1.587000000    -1.421000000     4.255000000
O    -3.332000000    -3.593000000     1.412000000
H    -2.053000000    -1.979000000     1.519000000
C    -4.792000000    -0.511000000     1.008000000
C    -5.386000000    -1.766000000     0.356000000
H    -6.299000000    -1.540000000    -0.199000000
H    -5.652000000    -2.383000000     1.216000000
C    -4.305000000    -2.532000000    -0.495000000
C    -4.186000000    -2.180000000    -1.846000000
H    -5.018000000    -1.603000000    -2.242000000
C    -3.347000000    -3.375000000     0.043000000
C    -2.288000000    -3.800000000    -0.716000000
H    -1.467000000    -4.335000000    -0.244000000
C    -2.249000000    -3.539000000    -2.034000000
O    -1.110000000    -3.920000000    -2.713000000
C    -0.031000000    -2.957000000    -2.784000000
C     1.336000000    -3.615000000    -2.363000000
C     1.266000000    -4.765000000    -1.592000000
H     0.391000000    -5.352000000    -1.324000000
C     2.506000000    -2.953000000    -2.742000000
H     2.525000000    -1.915000000    -3.065000000
O     0.036000000    -2.388000000    -4.182000000
H    -0.391000000    -2.140000000    -2.141000000
C    -3.150000000    -2.634000000    -2.601000000
C    -2.998000000    -2.262000000    -4.101000000
H    -3.978000000    -2.033000000    -4.524000000
H    -2.595000000    -3.098000000    -4.676000000
C    -2.067000000    -1.033000000    -4.272000000
C    -0.652000000    -1.189000000    -4.334000000
C     0.161000000    -0.075000000    -4.562000000
H     1.226000000    -0.257000000    -4.445000000
C    -0.415000000     1.217000000    -4.528000000
O     0.493000000     2.263000000    -4.519000000
C     0.786000000     2.984000000    -3.328000000
H     0.554000000     2.353000000    -2.457000000
C     2.345000000     3.361000000    -3.105000000
C     2.826000000     4.581000000    -2.609000000
H     2.097000000     5.310000000    -2.265000000
C     3.284000000     2.473000000    -3.629000000
H     2.925000000     1.627000000    -4.209000000
C     4.664000000     2.682000000    -3.436000000
O     5.546000000     1.768000000    -3.901000000
C     5.102000000     3.800000000    -2.736000000
H     6.149000000     3.949000000    -2.483000000
C     4.194000000     4.753000000    -2.342000000
O     4.602000000     5.837000000    -1.609000000
C     3.973000000     6.175000000    -0.393000000
C     3.828000000     5.307000000     0.686000000
H     3.953000000     4.242000000     0.508000000
C     3.429000000     7.466000000    -0.263000000
H     3.654000000     8.230000000    -1.002000000
C     2.788000000     7.826000000     0.936000000
H     2.556000000     8.872000000     1.116000000
C     2.588000000     6.935000000     1.996000000
H     2.113000000     7.218000000     2.932000000
C     3.159000000     5.650000000     1.879000000
O     3.007000000     4.752000000     2.905000000
C     1.765000000     4.320000000     3.353000000
C     1.637000000     3.824000000     4.633000000
H     2.449000000     4.040000000     5.323000000
C     0.487000000     3.197000000     5.061000000
O     0.354000000     2.732000000     6.350000000
C    -0.121000000     1.483000000     6.712000000
C     0.443000000     0.361000000     6.142000000
H     1.305000000     0.474000000     5.490000000
C    -1.164000000     1.403000000     7.621000000
H    -1.564000000     2.307000000     8.073000000
C    -1.675000000     0.117000000     7.891000000
H    -2.534000000    -0.023000000     8.542000000
C    -1.131000000    -1.009000000     7.268000000
H    -1.514000000    -1.950000000     7.653000000
C    -0.060000000    -0.881000000     6.390000000
O     0.511000000    -2.063000000     5.909000000
C    -0.104000000    -2.853000000     4.952000000
C     0.356000000    -4.144000000     4.851000000
H     1.180000000    -4.544000000     5.437000000
C    -0.148000000    -4.918000000     3.832000000
O     0.264000000    -6.239000000     3.731000000
C     0.442000000    -6.876000000     2.538000000
C     1.270000000    -6.285000000     1.545000000
H     1.930000000    -5.478000000     1.853000000
C    -0.309000000    -7.939000000     2.171000000
H    -1.059000000    -8.279000000     2.881000000
C    -0.204000000    -8.472000000     0.851000000
H    -0.815000000    -9.313000000     0.532000000
C     0.690000000    -7.926000000    -0.031000000
H     0.960000000    -8.310000000    -1.011000000
C     1.442000000    -6.872000000     0.281000000
O     2.541000000    -6.519000000    -0.510000000
C     2.478000000    -5.292000000    -1.151000000
C     3.637000000    -4.674000000    -1.610000000
H     4.600000000    -5.059000000    -1.288000000
C     3.682000000    -3.523000000    -2.380000000
O     4.812000000    -2.797000000    -2.488000000
C     4.931000000    -1.829000000    -3.467000000
C     4.876000000    -2.219000000    -4.835000000
H     4.624000000    -3.230000000    -5.147000000
C     4.948000000    -1.271000000    -5.825000000
H     4.957000000    -1.589000000    -6.864000000
C     5.040000000     0.126000000    -5.503000000
H     5.062000000     0.853000000    -6.311000000
C     5.206000000     0.495000000    -4.166000000
C     5.114000000    -0.472000000    -3.158000000
H     5.306000000    -0.260000000    -2.109000000
C     2.524000000     0.525000000     0.160000000
H     3.456000000     0.727000000    -0.362000000
C     1.313000000     0.453000000    -0.629000000
H     1.402000000     0.474000000    -1.712000000
C     0.063000000     0.323000000    -0.030000000
H    -0.913000000     0.358000000    -0.682000000
C    -0.061000000     0.294000000     1.354000000
H    -0.998000000     0.111000000     1.873000000
C     1.130000000     0.383000000     2.085000000
H     1.125000000     0.385000000     3.172000000
C     2.382000000     0.523000000     1.536000000
C     3.602000000     0.579000000     2.356000000
O     3.569000000     0.362000000     3.562000000
O     4.689000000     0.850000000     1.892000000
O     3.238000000    -2.170000000     4.256000000
H     3.286000000    -1.301000000     3.856000000
H     2.457000000    -2.136000000     4.808000000
O     7.166000000    -3.412000000    -0.623000000
H     6.927000000    -3.715000000    -1.499000000
H     7.060000000    -2.461000000    -0.661000000
O     6.110000000    -2.938000000     6.862000000
H     5.879000000    -3.049000000     7.784000000
H     5.435000000    -3.422000000     6.385000000
O     4.594000000     2.115000000     7.629000000
H     5.310000000     1.801000000     8.181000000
H     4.441000000     1.403000000     7.007000000
O     8.624000000     1.667000000     2.535000000
H     8.189000000     0.886000000     2.877000000
H     9.408000000     1.760000000     3.076000000
O     4.063000000    -0.929000000     8.354000000
H     4.777000000    -0.513000000     8.835000000
H     4.361000000    -0.939000000     7.444000000
O     4.413000000    -4.548000000     5.116000000
H     3.918000000    -3.816000000     4.747000000
H     4.902000000    -4.905000000     4.375000000
O     6.460000000     2.292000000     0.599000000
H     7.129000000     2.691000000     1.156000000
H     5.857000000     1.871000000     1.213000000
O     5.448000000     2.835000000     3.463000000
H     4.753000000     3.364000000     3.854000000
H     4.992000000     2.080000000     3.090000000
O     5.381000000    -2.445000000     2.641000000
H     5.118000000    -3.220000000     2.144000000
H     4.606000000    -2.215000000     3.154000000
O     7.802000000    -2.602000000     4.320000000
H     7.285000000    -3.269000000     4.772000000
H     7.865000000    -2.917000000     3.419000000
O     9.084000000     1.948000000     5.974000000
H     9.714000000     1.400000000     5.506000000
H     8.290000000     1.415000000     6.020000000
O     5.144000000     4.860000000     6.776000000
H     4.968000000     3.958000000     7.041000000
H     5.978000000     4.813000000     6.308000000
O     7.557000000    -0.457000000     6.159000000
H     7.128000000    -1.251000000     6.477000000
H     7.817000000    -0.668000000     5.262000000
O     7.149000000     4.501000000     4.971000000
H     6.766000000     4.039000000     4.225000000
H     8.054000000     4.671000000     4.708000000
O     8.232000000     1.290000000    -1.570000000
H     8.446000000     0.369000000    -1.422000000
H     7.357000000     1.396000000    -1.195000000
O     6.687000000    -0.041000000     3.492000000
H     5.943000000     0.485000000     3.197000000
H     6.417000000    -0.946000000     3.337000000
O     4.884000000    -0.096000000     5.913000000
H     5.817000000    -0.031000000     5.711000000
H     4.448000000     0.017000000     5.068000000
O     6.776000000    -0.557000000     0.310000000
H     6.216000000    -0.751000000     1.062000000
H     6.824000000     0.399000000     0.287000000
