215
-1440.80961
C    -0.736000000     3.235000000     4.617000000
H    -1.754000000     3.088000000     4.967000000
C    -0.474000000     3.612000000     3.284000000
C     0.860000000     3.897000000     2.901000000
H     1.094000000     4.306000000     1.922000000
C    -1.533000000     3.520000000     2.174000000
O    -2.816000000     3.192000000     2.764000000
H    -1.244000000     2.603000000     1.640000000
O    -1.672000000     4.630000000     1.353000000
C    -1.766000000     4.339000000     0.002000000
C    -0.600000000     4.368000000    -0.783000000
H     0.369000000     4.398000000    -0.292000000
C    -0.637000000     4.101000000    -2.162000000
O     0.492000000     4.168000000    -2.934000000
C    -1.835000000     3.644000000    -2.730000000
C    -1.897000000     3.249000000    -4.224000000
H    -2.946000000     3.383000000    -4.497000000
C    -1.402000000     1.811000000    -4.410000000
C    -2.352000000     0.764000000    -4.353000000
H    -3.406000000     1.029000000    -4.377000000
H    -1.240000000     3.807000000    -4.894000000
C    -2.976000000     3.458000000    -1.988000000
H    -3.900000000     3.088000000    -2.425000000
C    -2.991000000     3.904000000    -0.619000000
C    -4.211000000     3.713000000     0.284000000
H    -5.049000000     3.759000000    -0.414000000
H    -4.240000000     4.496000000     1.044000000
C    -4.276000000     2.402000000     0.988000000
C    -4.807000000     1.325000000     0.248000000
H    -5.380000000     1.511000000    -0.657000000
C    -3.518000000     2.174000000     2.138000000
C    -3.374000000     0.877000000     2.582000000
H    -2.868000000     0.795000000     3.541000000
C    -4.019000000    -0.218000000     1.982000000
O    -3.969000000    -1.501000000     2.533000000
C    -3.012000000    -2.402000000     2.014000000
C    -2.186000000    -3.120000000     3.113000000
C    -1.510000000    -4.291000000     2.820000000
H    -1.520000000    -4.669000000     1.801000000
C    -1.952000000    -2.484000000     4.355000000
H    -2.541000000    -1.573000000     4.429000000
O    -3.627000000    -3.330000000     1.107000000
H    -2.260000000    -1.817000000     1.463000000
C    -4.736000000     0.017000000     0.796000000
C    -5.401000000    -1.150000000     0.023000000
H    -6.059000000    -0.694000000    -0.720000000
H    -5.978000000    -1.774000000     0.708000000
C    -4.363000000    -1.950000000    -0.773000000
C    -4.170000000    -1.598000000    -2.169000000
H    -4.819000000    -0.792000000    -2.503000000
C    -3.559000000    -3.000000000    -0.213000000
C    -2.576000000    -3.643000000    -0.974000000
H    -1.805000000    -4.291000000    -0.565000000
C    -2.355000000    -3.176000000    -2.261000000
O    -1.208000000    -3.644000000    -2.959000000
C    -0.054000000    -2.800000000    -2.974000000
C     1.214000000    -3.655000000    -2.730000000
C     1.164000000    -4.959000000    -2.198000000
H     0.218000000    -5.447000000    -1.976000000
C     2.422000000    -2.993000000    -2.836000000
H     2.420000000    -1.966000000    -3.193000000
O    -0.077000000    -2.204000000    -4.306000000
H    -0.167000000    -2.043000000    -2.184000000
C    -3.172000000    -2.194000000    -2.859000000
C    -2.956000000    -1.660000000    -4.290000000
H    -3.874000000    -1.189000000    -4.647000000
H    -2.728000000    -2.413000000    -5.048000000
C    -1.916000000    -0.568000000    -4.362000000
C    -0.536000000    -0.856000000    -4.470000000
C     0.370000000     0.178000000    -4.643000000
H     1.449000000     0.047000000    -4.619000000
C    -0.077000000     1.510000000    -4.661000000
O     0.876000000     2.527000000    -4.630000000
C     1.217000000     2.915000000    -3.239000000
H     0.943000000     2.159000000    -2.488000000
C     2.800000000     3.083000000    -3.111000000
C     3.304000000     3.970000000    -2.172000000
H     2.614000000     4.595000000    -1.612000000
C     3.704000000     2.328000000    -3.848000000
H     3.292000000     1.715000000    -4.645000000
C     5.066000000     2.305000000    -3.485000000
O     5.864000000     1.401000000    -4.176000000
C     5.566000000     3.203000000    -2.600000000
H     6.632000000     3.106000000    -2.411000000
C     4.720000000     4.039000000    -1.859000000
O     5.218000000     4.767000000    -0.769000000
C     4.568000000     5.095000000     0.403000000
C     4.132000000     4.208000000     1.302000000
H     4.217000000     3.141000000     1.109000000
C     4.409000000     6.495000000     0.685000000
H     4.873000000     7.181000000    -0.019000000
C     3.872000000     6.926000000     1.972000000
H     3.735000000     7.976000000     2.222000000
C     3.500000000     5.913000000     2.826000000
H     3.059000000     6.133000000     3.794000000
C     3.623000000     4.546000000     2.557000000
O     3.195000000     3.661000000     3.480000000
C     1.906000000     3.607000000     3.840000000
C     1.642000000     2.952000000     5.066000000
H     2.454000000     2.624000000     5.710000000
C     0.304000000     2.809000000     5.434000000
O     0.087000000     2.168000000     6.644000000
C    -0.791000000     1.237000000     6.700000000
C    -0.329000000    -0.090000000     6.578000000
H     0.697000000    -0.384000000     6.373000000
C    -2.156000000     1.477000000     7.004000000
H    -2.494000000     2.510000000     6.993000000
C    -3.025000000     0.410000000     7.120000000
H    -4.055000000     0.674000000     7.348000000
C    -2.534000000    -0.893000000     6.963000000
H    -3.272000000    -1.691000000     6.994000000
C    -1.187000000    -1.135000000     6.749000000
O    -0.820000000    -2.429000000     6.538000000
C    -1.080000000    -3.005000000     5.321000000
C    -0.442000000    -4.218000000     5.007000000
H     0.350000000    -4.579000000     5.658000000
C    -0.537000000    -4.826000000     3.763000000
O     0.397000000    -5.706000000     3.360000000
C     0.292000000    -6.371000000     2.163000000
C     1.339000000    -6.228000000     1.251000000
H     2.285000000    -5.810000000     1.583000000
C    -0.872000000    -7.086000000     1.799000000
H    -1.661000000    -7.208000000     2.537000000
C    -0.948000000    -7.722000000     0.616000000
H    -1.847000000    -8.239000000     0.290000000
C     0.141000000    -7.631000000    -0.250000000
H     0.040000000    -7.989000000    -1.272000000
C     1.182000000    -6.820000000    -0.051000000
O     2.174000000    -6.757000000    -1.005000000
C     2.320000000    -5.507000000    -1.706000000
C     3.552000000    -4.873000000    -1.901000000
H     4.466000000    -5.218000000    -1.423000000
C     3.571000000    -3.640000000    -2.545000000
O     4.753000000    -2.967000000    -2.518000000
C     5.187000000    -2.130000000    -3.541000000
C     4.948000000    -2.564000000    -4.882000000
H     4.817000000    -3.632000000    -5.041000000
C     5.060000000    -1.688000000    -5.908000000
H     4.863000000    -2.129000000    -6.882000000
C     5.356000000    -0.354000000    -5.722000000
H     5.517000000     0.244000000    -6.616000000
C     5.521000000     0.121000000    -4.457000000
C     5.425000000    -0.760000000    -3.353000000
H     5.453000000    -0.331000000    -2.355000000
C     2.388000000    -1.130000000     0.095000000
H     3.272000000    -1.386000000    -0.484000000
C     1.263000000    -0.584000000    -0.524000000
H     1.298000000    -0.552000000    -1.610000000
C     0.087000000    -0.261000000     0.267000000
H    -0.836000000    -0.039000000    -0.227000000
C     0.131000000    -0.465000000     1.662000000
H    -0.711000000    -0.102000000     2.247000000
C     1.235000000    -1.076000000     2.247000000
H     1.259000000    -1.200000000     3.327000000
C     2.397000000    -1.383000000     1.497000000
C     3.630000000    -2.053000000     2.150000000
O     3.494000000    -2.548000000     3.261000000
O     4.536000000    -2.418000000     1.407000000
O     2.642000000    -3.305000000     5.758000000
H     2.488000000    -2.999000000     4.864000000
H     2.780000000    -4.248000000     5.668000000
O     6.681000000    -6.557000000    -1.388000000
H     6.717000000    -5.937000000    -0.660000000
H     7.518000000    -7.019000000    -1.351000000
O     7.801000000    -1.560000000     3.946000000
H     7.776000000    -2.516000000     3.983000000
H     8.357000000    -1.306000000     4.683000000
O     6.384000000     0.573000000     0.665000000
H     5.742000000     0.004000000     0.240000000
H     6.085000000     0.636000000     1.572000000
O     8.041000000     2.575000000     2.797000000
H     8.502000000     2.649000000     3.633000000
H     7.336000000     1.950000000     2.968000000
O     5.786000000    -2.264000000     6.742000000
H     6.010000000    -3.178000000     6.921000000
H     5.437000000    -2.273000000     5.851000000
O     6.434000000    -2.148000000    -0.401000000
H     5.821000000    -2.290000000    -1.122000000
H     5.914000000    -2.299000000     0.388000000
O     3.940000000    -0.148000000     5.143000000
H     3.699000000    -0.254000000     6.063000000
H     3.432000000    -0.816000000     4.683000000
O     2.968000000    -6.136000000     5.461000000
H     3.630000000    -6.638000000     5.936000000
H     2.430000000    -6.798000000     5.027000000
O     8.565000000    -2.669000000    -2.109000000
H     7.997000000    -2.633000000    -1.339000000
H     8.695000000    -3.604000000    -2.268000000
O     5.401000000    -4.833000000     0.950000000
H     4.988000000    -4.084000000     0.521000000
H     5.378000000    -4.618000000     1.882000000
O     8.574000000    -1.196000000     1.297000000
H     8.381000000    -1.476000000     2.191000000
H     7.837000000    -0.634000000     1.057000000
O     6.065000000     2.672000000     5.832000000
H     5.743000000     1.824000000     5.526000000
H     5.553000000     2.853000000     6.620000000
O     4.859000000    -4.841000000     3.628000000
H     4.270000000    -5.517000000     3.964000000
H     4.413000000    -4.017000000     3.825000000
O     5.958000000     0.588000000     3.362000000
H     5.075000000     0.528000000     3.728000000
H     6.345000000    -0.271000000     3.529000000
O     7.556000000    -4.159000000     3.932000000
H     7.732000000    -4.620000000     4.752000000
H     6.778000000    -4.590000000     3.577000000
O     2.883000000    -3.203000000     8.568000000
H     2.718000000    -3.082000000     7.633000000
H     3.089000000    -2.325000000     8.890000000
O     8.383000000    -3.904000000     0.727000000
H     7.570000000    -4.191000000     1.144000000
H     8.242000000    -2.976000000     0.539000000
O     5.282000000    -8.197000000     0.897000000
H     6.048000000    -8.575000000     0.463000000
H     5.422000000    -7.251000000     0.846000000
