215
-1449.91491
C     0.141000000     2.387000000     4.638000000
H    -0.783000000     2.253000000     5.196000000
C     0.169000000     3.038000000     3.419000000
C     1.413000000     3.300000000     2.852000000
H     1.334000000     3.647000000     1.825000000
C    -1.083000000     3.366000000     2.618000000
O    -2.318000000     3.245000000     3.470000000
H    -1.186000000     2.640000000     1.799000000
O    -1.013000000     4.596000000     1.934000000
C    -1.408000000     4.583000000     0.628000000
C    -0.403000000     4.601000000    -0.315000000
H     0.592000000     4.902000000     0.004000000
C    -0.570000000     4.270000000    -1.673000000
O     0.549000000     4.207000000    -2.428000000
C    -1.865000000     4.040000000    -2.073000000
C    -2.175000000     3.689000000    -3.514000000
H    -3.231000000     3.870000000    -3.721000000
C    -1.883000000     2.137000000    -3.758000000
C    -2.882000000     1.138000000    -3.800000000
H    -3.868000000     1.505000000    -3.527000000
H    -1.558000000     4.208000000    -4.252000000
C    -2.988000000     4.121000000    -1.158000000
H    -4.013000000     3.988000000    -1.493000000
C    -2.732000000     4.282000000     0.221000000
C    -3.837000000     4.153000000     1.202000000
H    -4.800000000     4.406000000     0.756000000
H    -3.657000000     4.825000000     2.044000000
C    -4.009000000     2.673000000     1.757000000
C    -4.632000000     1.653000000     1.043000000
H    -5.255000000     1.872000000     0.179000000
C    -3.246000000     2.357000000     2.939000000
C    -3.192000000     1.044000000     3.342000000
H    -2.589000000     0.806000000     4.214000000
C    -3.900000000     0.002000000     2.622000000
O    -3.653000000    -1.256000000     3.057000000
C    -2.729000000    -2.071000000     2.291000000
C    -1.927000000    -3.018000000     3.234000000
C    -1.413000000    -4.204000000     2.716000000
H    -1.670000000    -4.504000000     1.703000000
C    -1.599000000    -2.623000000     4.566000000
H    -2.003000000    -1.653000000     4.846000000
O    -3.590000000    -2.898000000     1.442000000
H    -2.058000000    -1.428000000     1.702000000
C    -4.601000000     0.330000000     1.447000000
C    -5.346000000    -0.747000000     0.681000000
H    -6.164000000    -0.319000000     0.098000000
H    -5.846000000    -1.397000000     1.401000000
C    -4.499000000    -1.588000000    -0.251000000
C    -4.466000000    -1.135000000    -1.579000000
H    -5.077000000    -0.253000000    -1.757000000
C    -3.614000000    -2.595000000     0.142000000
C    -2.892000000    -3.266000000    -0.827000000
H    -2.298000000    -4.153000000    -0.620000000
C    -2.932000000    -2.897000000    -2.197000000
O    -1.959000000    -3.429000000    -3.054000000
C    -0.808000000    -2.679000000    -3.382000000
C     0.457000000    -3.546000000    -3.301000000
C     0.557000000    -4.453000000    -2.272000000
H    -0.251000000    -4.756000000    -1.611000000
C     1.568000000    -3.135000000    -4.069000000
H     1.487000000    -2.299000000    -4.759000000
O    -0.937000000    -1.914000000    -4.574000000
H    -0.754000000    -1.976000000    -2.537000000
C    -3.657000000    -1.708000000    -2.557000000
C    -3.764000000    -1.125000000    -3.868000000
H    -4.726000000    -0.632000000    -4.019000000
H    -3.688000000    -1.936000000    -4.596000000
C    -2.634000000    -0.200000000    -4.142000000
C    -1.296000000    -0.554000000    -4.468000000
C    -0.364000000     0.456000000    -4.608000000
H     0.677000000     0.215000000    -4.811000000
C    -0.557000000     1.720000000    -4.142000000
O     0.501000000     2.537000000    -4.243000000
C     1.080000000     2.962000000    -2.964000000
H     0.879000000     2.171000000    -2.228000000
C     2.632000000     2.876000000    -3.091000000
C     3.380000000     3.717000000    -2.212000000
H     2.838000000     4.274000000    -1.453000000
C     3.331000000     1.934000000    -3.878000000
H     2.710000000     1.244000000    -4.443000000
C     4.743000000     1.997000000    -3.988000000
O     5.367000000     1.137000000    -4.813000000
C     5.409000000     2.902000000    -3.176000000
H     6.495000000     2.935000000    -3.163000000
C     4.786000000     3.745000000    -2.243000000
O     5.435000000     4.477000000    -1.327000000
C     4.953000000     4.804000000    -0.079000000
C     4.464000000     3.791000000     0.773000000
H     4.450000000     2.739000000     0.503000000
C     4.949000000     6.155000000     0.388000000
H     5.353000000     6.958000000    -0.223000000
C     4.540000000     6.460000000     1.680000000
H     4.535000000     7.489000000     2.028000000
C     4.333000000     5.350000000     2.529000000
H     4.074000000     5.495000000     3.575000000
C     4.220000000     4.097000000     2.094000000
O     3.902000000     3.049000000     2.931000000
C     2.608000000     2.925000000     3.508000000
C     2.529000000     2.462000000     4.815000000
H     3.453000000     2.262000000     5.352000000
C     1.332000000     2.081000000     5.375000000
O     1.348000000     1.326000000     6.554000000
C     0.237000000     0.505000000     6.911000000
C     0.369000000    -0.853000000     6.657000000
H     1.222000000    -1.262000000     6.122000000
C    -0.876000000     1.030000000     7.567000000
H    -0.958000000     2.103000000     7.715000000
C    -1.902000000     0.186000000     7.966000000
H    -2.801000000     0.471000000     8.507000000
C    -1.723000000    -1.168000000     7.679000000
H    -2.538000000    -1.847000000     7.914000000
C    -0.599000000    -1.710000000     6.991000000
O    -0.497000000    -2.984000000     6.635000000
C    -0.822000000    -3.408000000     5.373000000
C    -0.254000000    -4.560000000     4.878000000
H     0.306000000    -5.208000000     5.548000000
C    -0.620000000    -5.015000000     3.559000000
O    -0.314000000    -6.271000000     3.184000000
C     0.022000000    -6.694000000     1.842000000
C     0.988000000    -5.985000000     1.140000000
H     1.552000000    -5.161000000     1.570000000
C    -0.748000000    -7.710000000     1.290000000
H    -1.386000000    -8.271000000     1.968000000
C    -0.507000000    -8.172000000     0.018000000
H    -1.082000000    -8.997000000    -0.394000000
C     0.474000000    -7.505000000    -0.733000000
H     0.665000000    -7.850000000    -1.746000000
C     1.214000000    -6.430000000    -0.197000000
O     2.221000000    -5.831000000    -0.978000000
C     1.894000000    -4.978000000    -2.020000000
C     2.982000000    -4.615000000    -2.784000000
H     3.969000000    -5.018000000    -2.569000000
C     2.828000000    -3.767000000    -3.866000000
O     3.987000000    -3.415000000    -4.525000000
C     4.138000000    -2.250000000    -5.246000000
C     3.652000000    -2.145000000    -6.575000000
H     3.259000000    -3.052000000    -7.028000000
C     3.843000000    -0.953000000    -7.290000000
H     3.737000000    -0.846000000    -8.366000000
C     4.393000000     0.185000000    -6.676000000
H     4.493000000     1.158000000    -7.149000000
C     4.790000000     0.055000000    -5.405000000
C     4.654000000    -1.117000000    -4.698000000
H     5.054000000    -1.151000000    -3.688000000
C     2.977000000    -0.099000000     0.068000000
H     3.863000000    -0.075000000    -0.562000000
C     1.745000000    -0.045000000    -0.480000000
H     1.683000000     0.043000000    -1.562000000
C     0.601000000    -0.038000000     0.313000000
H    -0.352000000    -0.046000000    -0.150000000
C     0.680000000    -0.242000000     1.680000000
H    -0.237000000    -0.258000000     2.265000000
C     1.986000000    -0.369000000     2.231000000
H     2.150000000    -0.659000000     3.266000000
C     3.134000000    -0.275000000     1.436000000
C     4.479000000    -0.386000000     2.143000000
O     4.586000000    -0.241000000     3.330000000
O     5.484000000    -0.698000000     1.553000000
O     3.162000000    -1.998000000     4.951000000
H     3.561000000    -1.465000000     4.263000000
H     2.962000000    -2.831000000     4.524000000
O    10.753000000    -0.232000000     1.685000000
H     9.800000000    -0.210000000     1.771000000
H    11.074000000     0.241000000     2.452000000
O     3.575000000    -4.201000000     7.119000000
H     3.494000000    -3.431000000     6.557000000
H     4.494000000    -4.205000000     7.387000000
O     7.862000000     0.490000000     6.544000000
H     8.698000000     0.487000000     7.009000000
H     7.223000000     0.770000000     7.200000000
O     7.363000000     2.749000000    -0.187000000
H     6.851000000     3.535000000    -0.378000000
H     7.554000000     2.809000000     0.749000000
O     7.013000000    -4.379000000     4.954000000
H     6.679000000    -3.513000000     5.188000000
H     6.529000000    -4.982000000     5.518000000
O     7.118000000    -0.032000000    -0.645000000
H     7.096000000     0.923000000    -0.587000000
H     6.632000000    -0.330000000     0.124000000
O     6.789000000     1.377000000     4.322000000
H     7.145000000     0.936000000     5.093000000
H     6.188000000     0.738000000     3.938000000
O     2.904000000    -4.467000000     3.547000000
H     3.708000000    -4.614000000     3.049000000
H     2.749000000    -5.294000000     4.003000000
O     8.591000000    -3.261000000     0.652000000
H     8.483000000    -2.714000000     1.430000000
H     7.864000000    -3.011000000     0.081000000
O     5.670000000    -5.354000000     2.607000000
H     5.988000000    -4.892000000     3.383000000
H     6.216000000    -6.139000000     2.556000000
O     6.081000000     4.174000000     5.203000000
H     6.045000000     3.326000000     4.761000000
H     6.511000000     3.990000000     6.038000000
O     6.171000000    -1.848000000     4.874000000
H     5.893000000    -1.447000000     5.697000000
H     5.529000000    -1.547000000     4.231000000
O     8.024000000     2.888000000     2.370000000
H     7.406000000     2.358000000     2.872000000
H     8.726000000     3.089000000     2.989000000
O     7.887000000    -1.431000000     2.666000000
H     7.680000000    -1.766000000     3.538000000
H     7.132000000    -0.891000000     2.432000000
O     4.884000000     0.176000000     6.097000000
H     4.191000000    -0.276000000     5.616000000
H     5.183000000     0.862000000     5.500000000
O     5.943000000    -5.754000000    -0.725000000
H     5.405000000    -6.512000000    -0.497000000
H     5.607000000    -5.046000000    -0.175000000
O     5.257000000    -3.223000000     0.325000000
H     5.394000000    -3.422000000     1.251000000
H     4.853000000    -2.355000000     0.324000000
O     9.680000000    -0.228000000    -1.504000000
H    10.094000000    -0.869000000    -0.927000000
H     8.748000000    -0.279000000    -1.290000000
