215
-1458.98255
C    -0.151000000     2.875000000     4.091000000
H    -1.010000000     2.219000000     4.203000000
C     0.055000000     3.680000000     2.899000000
C     1.246000000     4.349000000     2.835000000
H     1.468000000     4.732000000     1.843000000
C    -0.969000000     3.566000000     1.849000000
O    -2.279000000     3.386000000     2.431000000
H    -0.743000000     2.657000000     1.272000000
O    -0.969000000     4.770000000     1.080000000
C    -1.023000000     4.519000000    -0.269000000
C     0.156000000     4.360000000    -1.041000000
H     1.122000000     4.397000000    -0.544000000
C     0.121000000     4.024000000    -2.403000000
O     1.334000000     3.806000000    -3.012000000
C    -1.081000000     3.761000000    -3.062000000
C    -1.102000000     3.218000000    -4.470000000
H    -2.094000000     3.378000000    -4.897000000
C    -0.918000000     1.744000000    -4.589000000
C    -2.072000000     0.967000000    -4.512000000
H    -3.018000000     1.501000000    -4.511000000
H    -0.440000000     3.784000000    -5.128000000
C    -2.254000000     3.755000000    -2.350000000
H    -3.192000000     3.495000000    -2.834000000
C    -2.207000000     4.171000000    -0.986000000
C    -3.472000000     4.176000000    -0.208000000
H    -4.385000000     4.293000000    -0.795000000
H    -3.437000000     5.004000000     0.502000000
C    -3.802000000     2.874000000     0.536000000
C    -4.617000000     1.899000000    -0.067000000
H    -4.970000000     1.954000000    -1.094000000
C    -3.253000000     2.588000000     1.800000000
C    -3.616000000     1.458000000     2.506000000
H    -3.283000000     1.279000000     3.525000000
C    -4.384000000     0.471000000     1.903000000
O    -4.367000000    -0.790000000     2.518000000
C    -3.477000000    -1.759000000     1.971000000
C    -2.779000000    -2.667000000     3.023000000
C    -2.472000000    -3.989000000     2.671000000
H    -2.611000000    -4.328000000     1.647000000
C    -2.370000000    -2.072000000     4.202000000
H    -2.652000000    -1.036000000     4.370000000
O    -4.351000000    -2.595000000     1.098000000
H    -2.648000000    -1.324000000     1.393000000
C    -4.943000000     0.707000000     0.615000000
C    -5.651000000    -0.441000000    -0.077000000
H    -6.437000000    -0.159000000    -0.780000000
H    -6.203000000    -1.084000000     0.612000000
C    -4.630000000    -1.231000000    -0.890000000
C    -4.316000000    -0.894000000    -2.189000000
H    -4.741000000     0.038000000    -2.553000000
C    -4.084000000    -2.398000000    -0.271000000
C    -3.119000000    -3.159000000    -0.967000000
H    -2.748000000    -4.046000000    -0.460000000
C    -2.843000000    -2.817000000    -2.275000000
O    -1.870000000    -3.505000000    -2.865000000
C    -0.585000000    -2.912000000    -2.874000000
C     0.501000000    -3.922000000    -2.477000000
C     0.318000000    -5.089000000    -1.745000000
H    -0.706000000    -5.416000000    -1.580000000
C     1.823000000    -3.475000000    -2.690000000
H     1.879000000    -2.476000000    -3.113000000
O    -0.325000000    -2.272000000    -4.170000000
H    -0.644000000    -2.111000000    -2.123000000
C    -3.403000000    -1.705000000    -2.861000000
C    -3.030000000    -1.406000000    -4.299000000
H    -3.847000000    -0.920000000    -4.836000000
H    -2.865000000    -2.318000000    -4.876000000
C    -1.857000000    -0.422000000    -4.461000000
C    -0.532000000    -0.976000000    -4.466000000
C     0.576000000    -0.159000000    -4.556000000
H     1.557000000    -0.611000000    -4.434000000
C     0.373000000     1.211000000    -4.572000000
O     1.508000000     1.979000000    -4.516000000
C     1.794000000     2.455000000    -3.145000000
H     1.282000000     1.802000000    -2.422000000
C     3.272000000     2.401000000    -2.685000000
C     3.783000000     3.373000000    -1.831000000
H     3.167000000     4.145000000    -1.377000000
C     4.080000000     1.421000000    -3.209000000
H     3.580000000     0.795000000    -3.944000000
C     5.466000000     1.425000000    -2.966000000
O     6.304000000     0.521000000    -3.506000000
C     5.991000000     2.352000000    -2.096000000
H     7.071000000     2.375000000    -1.974000000
C     5.133000000     3.348000000    -1.531000000
O     5.677000000     4.133000000    -0.566000000
C     4.963000000     4.952000000     0.276000000
C     4.428000000     4.497000000     1.504000000
H     4.556000000     3.472000000     1.842000000
C     4.899000000     6.290000000    -0.088000000
H     5.392000000     6.574000000    -1.014000000
C     4.392000000     7.182000000     0.807000000
H     4.498000000     8.260000000     0.716000000
C     3.804000000     6.778000000     1.973000000
H     3.456000000     7.486000000     2.721000000
C     3.763000000     5.449000000     2.314000000
O     3.369000000     5.058000000     3.575000000
C     2.255000000     4.328000000     3.761000000
C     2.049000000     3.682000000     4.979000000
H     2.840000000     3.645000000     5.725000000
C     0.889000000     2.887000000     5.032000000
O     0.680000000     2.174000000     6.182000000
C    -0.356000000     1.312000000     6.462000000
C    -0.324000000    -0.067000000     6.118000000
H     0.564000000    -0.460000000     5.631000000
C    -1.402000000     1.758000000     7.256000000
H    -1.486000000     2.811000000     7.509000000
C    -2.401000000     0.820000000     7.657000000
H    -3.051000000     1.254000000     8.412000000
C    -2.380000000    -0.521000000     7.297000000
H    -3.144000000    -1.214000000     7.640000000
C    -1.260000000    -0.974000000     6.527000000
O    -1.171000000    -2.297000000     6.272000000
C    -1.633000000    -2.833000000     5.089000000
C    -1.343000000    -4.179000000     4.756000000
H    -0.622000000    -4.784000000     5.299000000
C    -1.823000000    -4.797000000     3.587000000
O    -1.444000000    -6.081000000     3.489000000
C    -1.301000000    -6.735000000     2.322000000
C    -0.178000000    -6.445000000     1.520000000
H     0.573000000    -5.751000000     1.889000000
C    -2.180000000    -7.766000000     1.955000000
H    -3.049000000    -8.058000000     2.538000000
C    -1.951000000    -8.484000000     0.787000000
H    -2.658000000    -9.262000000     0.508000000
C    -0.933000000    -8.094000000    -0.104000000
H    -0.698000000    -8.733000000    -0.951000000
C    -0.008000000    -7.151000000     0.358000000
O     1.151000000    -6.934000000    -0.417000000
C     1.445000000    -5.748000000    -1.148000000
C     2.749000000    -5.299000000    -1.387000000
H     3.592000000    -5.801000000    -0.920000000
C     2.947000000    -4.127000000    -2.156000000
O     4.172000000    -3.595000000    -2.160000000
C     4.755000000    -2.867000000    -3.128000000
C     4.881000000    -3.303000000    -4.439000000
H     4.652000000    -4.312000000    -4.772000000
C     5.620000000    -2.549000000    -5.342000000
H     5.883000000    -2.918000000    -6.330000000
C     6.043000000    -1.297000000    -5.086000000
H     6.640000000    -0.862000000    -5.883000000
C     5.833000000    -0.774000000    -3.803000000
C     5.214000000    -1.541000000    -2.792000000
H     4.993000000    -1.093000000    -1.827000000
C     2.436000000    -1.693000000     0.705000000
H     3.292000000    -2.269000000     0.364000000
C     1.671000000    -1.023000000    -0.235000000
H     1.896000000    -1.004000000    -1.298000000
C     0.495000000    -0.335000000     0.121000000
H    -0.099000000     0.149000000    -0.570000000
C     0.008000000    -0.496000000     1.415000000
H    -0.883000000     0.047000000     1.719000000
C     0.862000000    -1.159000000     2.332000000
H     0.468000000    -1.362000000     3.324000000
C     2.085000000    -1.727000000     2.067000000
C     2.849000000    -2.509000000     3.062000000
O     2.777000000    -2.310000000     4.286000000
O     3.756000000    -3.185000000     2.729000000
O     5.184000000    -5.355000000     4.857000000
H     5.898000000    -4.833000000     5.225000000
H     4.434000000    -4.761000000     4.846000000
O     8.194000000    -2.473000000     3.193000000
H     8.674000000    -3.281000000     3.372000000
H     7.413000000    -2.531000000     3.742000000
O     7.390000000    -3.334000000    -1.101000000
H     6.912000000    -2.763000000    -0.500000000
H     7.780000000    -4.002000000    -0.537000000
O     6.273000000    -0.418000000     5.807000000
H     6.249000000    -0.696000000     4.891000000
H     5.486000000     0.117000000     5.915000000
O     0.786000000    -3.358000000     9.172000000
H     1.472000000    -3.405000000     8.506000000
H     1.240000000    -3.069000000     9.963000000
O     5.123000000    -2.630000000     7.573000000
H     5.762000000    -3.209000000     7.990000000
H     5.627000000    -2.153000000     6.914000000
O     5.507000000     1.865000000     3.985000000
H     5.340000000     2.015000000     3.054000000
H     4.833000000     1.240000000     4.251000000
O     2.366000000    -0.228000000     7.820000000
H     1.623000000    -0.758000000     8.111000000
H     2.681000000     0.200000000     8.616000000
O     0.829000000    -7.632000000     4.679000000
H     0.500000000    -6.881000000     4.185000000
H     0.043000000    -8.047000000     5.035000000
O     5.909000000    -2.225000000     1.012000000
H     6.719000000    -2.430000000     1.479000000
H     5.216000000    -2.397000000     1.649000000
O     3.680000000    -0.131000000     5.392000000
H     3.219000000    -0.884000000     5.023000000
H     3.244000000     0.031000000     6.229000000
O     1.582000000    -5.950000000     6.973000000
H     1.586000000    -6.513000000     6.199000000
H     2.199000000    -5.249000000     6.762000000
O     3.693000000    -6.070000000     2.109000000
H     3.772000000    -5.186000000     2.466000000
H     3.745000000    -6.643000000     2.874000000
O     4.783000000    -7.956000000     3.967000000
H     4.425000000    -8.394000000     4.739000000
H     5.109000000    -7.119000000     4.297000000
O     5.750000000    -2.611000000     4.237000000
H     5.247000000    -2.619000000     5.051000000
H     5.119000000    -2.864000000     3.563000000
O     7.519000000    -4.370000000     5.895000000
H     8.437000000    -4.629000000     5.983000000
H     7.507000000    -3.445000000     6.142000000
O     3.061000000    -3.675000000     6.386000000
H     2.844000000    -3.108000000     5.646000000
H     3.547000000    -3.109000000     6.986000000
O     5.311000000     0.379000000     0.775000000
H     4.386000000     0.192000000     0.616000000
H     5.710000000    -0.480000000     0.907000000
O     6.727000000    -6.208000000     2.429000000
H     6.340000000    -5.755000000     3.178000000
H     5.983000000    -6.416000000     1.864000000
