215
-1449.71066
C    -0.399000000     1.980000000     4.325000000
H    -1.409000000     1.595000000     4.206000000
C     0.215000000     2.796000000     3.443000000
C     1.529000000     3.223000000     3.649000000
H     1.941000000     3.939000000     2.943000000
C    -0.629000000     3.247000000     2.286000000
O    -2.027000000     3.457000000     2.656000000
H    -0.577000000     2.456000000     1.522000000
O    -0.107000000     4.479000000     1.708000000
C     0.034000000     4.558000000     0.352000000
C     1.300000000     4.287000000    -0.249000000
H     2.141000000     4.103000000     0.414000000
C     1.431000000     4.273000000    -1.655000000
O     2.647000000     3.811000000    -2.186000000
C     0.261000000     4.248000000    -2.431000000
C     0.320000000     3.917000000    -3.910000000
H    -0.464000000     4.396000000    -4.499000000
C     0.353000000     2.419000000    -4.223000000
C    -0.899000000     1.797000000    -4.475000000
H    -1.800000000     2.403000000    -4.436000000
H     1.153000000     4.476000000    -4.341000000
C    -0.972000000     4.494000000    -1.807000000
H    -1.841000000     4.499000000    -2.459000000
C    -1.089000000     4.670000000    -0.435000000
C    -2.416000000     4.927000000     0.231000000
H    -3.056000000     5.508000000    -0.436000000
H    -2.252000000     5.522000000     1.132000000
C    -3.211000000     3.610000000     0.523000000
C    -3.989000000     2.919000000    -0.406000000
H    -4.076000000     3.322000000    -1.411000000
C    -2.980000000     3.003000000     1.758000000
C    -3.589000000     1.821000000     2.094000000
H    -3.461000000     1.460000000     3.111000000
C    -4.390000000     1.156000000     1.194000000
O    -4.938000000    -0.026000000     1.553000000
C    -4.238000000    -1.167000000     1.133000000
C    -4.000000000    -2.262000000     2.161000000
C    -3.344000000    -3.422000000     1.772000000
H    -3.292000000    -3.569000000     0.696000000
C    -4.060000000    -1.985000000     3.575000000
H    -4.346000000    -0.995000000     3.920000000
O    -4.851000000    -1.707000000    -0.056000000
H    -3.238000000    -0.838000000     0.813000000
C    -4.592000000     1.736000000    -0.078000000
C    -5.458000000     0.951000000    -1.076000000
H    -5.906000000     1.656000000    -1.780000000
H    -6.310000000     0.425000000    -0.639000000
C    -4.544000000    -0.070000000    -1.859000000
C    -4.000000000     0.206000000    -3.104000000
H    -4.399000000     1.023000000    -3.700000000
C    -4.315000000    -1.322000000    -1.256000000
C    -3.393000000    -2.216000000    -1.922000000
H    -3.017000000    -3.095000000    -1.405000000
C    -2.737000000    -1.804000000    -3.077000000
O    -1.758000000    -2.613000000    -3.609000000
C    -0.335000000    -2.307000000    -3.404000000
C     0.437000000    -3.540000000    -3.043000000
C    -0.188000000    -4.685000000    -2.600000000
H    -1.267000000    -4.627000000    -2.481000000
C     1.841000000    -3.516000000    -3.178000000
H     2.461000000    -2.641000000    -3.354000000
O     0.159000000    -1.673000000    -4.634000000
H    -0.259000000    -1.507000000    -2.652000000
C    -3.048000000    -0.602000000    -3.713000000
C    -2.279000000    -0.232000000    -4.984000000
H    -2.895000000     0.316000000    -5.700000000
H    -2.026000000    -1.103000000    -5.593000000
C    -0.965000000     0.466000000    -4.695000000
C     0.202000000    -0.315000000    -4.666000000
C     1.396000000     0.325000000    -4.328000000
H     2.257000000    -0.271000000    -4.036000000
C     1.493000000     1.647000000    -4.116000000
O     2.750000000     2.032000000    -3.647000000
C     2.896000000     2.437000000    -2.314000000
H     2.204000000     1.816000000    -1.727000000
C     4.217000000     2.022000000    -1.754000000
C     4.768000000     2.675000000    -0.623000000
H     4.240000000     3.532000000    -0.213000000
C     4.933000000     0.929000000    -2.289000000
H     4.426000000     0.342000000    -3.051000000
C     6.072000000     0.387000000    -1.645000000
O     6.543000000    -0.836000000    -2.052000000
C     6.567000000     1.098000000    -0.539000000
H     7.506000000     0.821000000    -0.066000000
C     5.889000000     2.169000000     0.011000000
O     6.470000000     2.802000000     1.046000000
C     5.694000000     3.552000000     1.968000000
C     4.974000000     2.926000000     2.993000000
H     4.964000000     1.839000000     2.978000000
C     5.885000000     4.947000000     2.039000000
H     6.581000000     5.420000000     1.351000000
C     5.231000000     5.697000000     3.034000000
H     5.318000000     6.780000000     3.041000000
C     4.475000000     5.051000000     4.019000000
H     4.123000000     5.623000000     4.874000000
C     4.348000000     3.663000000     4.014000000
O     3.601000000     3.069000000     5.004000000
C     2.298000000     2.661000000     4.654000000
C     1.710000000     1.827000000     5.543000000
H     2.244000000     1.436000000     6.406000000
C     0.340000000     1.516000000     5.392000000
O    -0.206000000     0.723000000     6.384000000
C    -1.502000000     0.367000000     6.427000000
C    -1.831000000    -0.926000000     6.051000000
H    -1.076000000    -1.522000000     5.545000000
C    -2.476000000     1.247000000     6.874000000
H    -2.171000000     2.262000000     7.111000000
C    -3.770000000     0.780000000     7.023000000
H    -4.544000000     1.496000000     7.286000000
C    -4.125000000    -0.522000000     6.693000000
H    -5.148000000    -0.890000000     6.716000000
C    -3.143000000    -1.412000000     6.267000000
O    -3.503000000    -2.629000000     5.859000000
C    -3.593000000    -2.936000000     4.513000000
C    -3.041000000    -4.167000000     4.050000000
H    -2.677000000    -4.813000000     4.845000000
C    -2.895000000    -4.408000000     2.702000000
O    -2.388000000    -5.633000000     2.291000000
C    -2.437000000    -6.140000000     1.067000000
C    -1.273000000    -6.197000000     0.302000000
H    -0.317000000    -5.792000000     0.622000000
C    -3.617000000    -6.667000000     0.628000000
H    -4.540000000    -6.683000000     1.203000000
C    -3.648000000    -7.360000000    -0.557000000
H    -4.523000000    -7.888000000    -0.927000000
C    -2.491000000    -7.404000000    -1.351000000
H    -2.568000000    -7.919000000    -2.305000000
C    -1.275000000    -6.876000000    -0.933000000
O    -0.176000000    -6.842000000    -1.763000000
C     0.515000000    -5.852000000    -2.257000000
C     1.917000000    -5.875000000    -2.426000000
H     2.539000000    -6.755000000    -2.277000000
C     2.536000000    -4.700000000    -2.963000000
O     3.941000000    -4.732000000    -3.054000000
C     4.796000000    -3.755000000    -3.484000000
C     4.875000000    -3.398000000    -4.813000000
H     4.569000000    -4.080000000    -5.602000000
C     5.504000000    -2.244000000    -5.202000000
H     5.765000000    -1.933000000    -6.211000000
C     5.984000000    -1.378000000    -4.278000000
H     6.568000000    -0.542000000    -4.655000000
C     5.906000000    -1.710000000    -2.972000000
C     5.202000000    -2.874000000    -2.536000000
H     5.078000000    -3.102000000    -1.480000000
C     1.580000000    -2.367000000     0.352000000
H     2.377000000    -2.890000000    -0.170000000
C     0.965000000    -1.357000000    -0.372000000
H     1.430000000    -1.091000000    -1.318000000
C    -0.163000000    -0.664000000     0.117000000
H    -0.657000000     0.035000000    -0.477000000
C    -0.592000000    -0.927000000     1.367000000
H    -1.510000000    -0.471000000     1.728000000
C    -0.069000000    -2.022000000     2.101000000
H    -0.234000000    -2.233000000     3.155000000
C     1.042000000    -2.663000000     1.629000000
C     1.776000000    -3.651000000     2.497000000
O     1.139000000    -4.308000000     3.338000000
O     2.980000000    -3.893000000     2.358000000
O     7.688000000    -1.515000000     1.342000000
H     8.059000000    -0.776000000     1.825000000
H     6.836000000    -1.665000000     1.751000000
O     5.092000000    -1.864000000     2.312000000
H     4.809000000    -1.457000000     3.131000000
H     4.735000000    -2.751000000     2.350000000
O     7.418000000    -6.782000000     3.254000000
H     6.560000000    -6.361000000     3.304000000
H     7.226000000    -7.719000000     3.263000000
O     0.077000000    -4.135000000     5.772000000
H     0.901000000    -3.945000000     6.219000000
H     0.312000000    -4.180000000     4.845000000
O    -0.933000000    -9.290000000     2.119000000
H    -0.982000000    -8.340000000     2.227000000
H    -0.063000000    -9.445000000     1.751000000
O     2.724000000    -7.310000000     4.688000000
H     3.575000000    -7.254000000     5.124000000
H     2.128000000    -7.627000000     5.367000000
O     4.902000000    -8.138000000     1.945000000
H     5.347000000    -7.775000000     1.179000000
H     4.446000000    -7.391000000     2.333000000
O    -0.392000000    -2.927000000     8.205000000
H    -0.298000000    -3.292000000     7.325000000
H     0.361000000    -3.268000000     8.687000000
O    -1.500000000    -6.212000000     6.997000000
H    -1.030000000    -5.450000000     6.657000000
H    -0.853000000    -6.673000000     7.532000000
O     1.321000000    -8.561000000     0.493000000
H     1.003000000    -7.924000000     1.133000000
H     1.218000000    -8.123000000    -0.352000000
O     5.986000000    -5.217000000    -0.024000000
H     5.161000000    -5.224000000     0.462000000
H     5.939000000    -5.990000000    -0.587000000
O     4.664000000    -5.491000000     3.496000000
H     4.108000000    -4.998000000     2.893000000
H     4.074000000    -6.127000000     3.901000000
O     6.587000000    -4.307000000     5.094000000
H     6.642000000    -4.964000000     5.788000000
H     5.939000000    -4.657000000     4.483000000
O     0.564000000    -9.383000000     5.440000000
H    -0.029000000    -8.921000000     4.847000000
H     0.479000000    -8.919000000     6.273000000
O     2.932000000    -5.815000000     8.138000000
H     2.881000000    -5.295000000     7.336000000
H     3.840000000    -5.722000000     8.426000000
O     4.578000000    -1.505000000     5.374000000
H     4.391000000    -0.757000000     5.941000000
H     5.453000000    -1.792000000     5.635000000
O     0.699000000    -6.824000000     2.593000000
H     1.372000000    -6.969000000     3.259000000
H     0.385000000    -5.935000000     2.760000000
O     2.837000000    -3.893000000     6.097000000
H     2.895000000    -4.130000000     5.171000000
H     3.158000000    -2.992000000     6.134000000
O     3.194000000    -5.962000000     0.701000000
H     2.822000000    -5.147000000     1.039000000
H     2.610000000    -6.646000000     1.028000000
