215
-1451.27923
C    -2.163000000    -2.634000000    -4.130000000
H    -2.716000000    -1.919000000    -4.734000000
C    -2.475000000    -2.711000000    -2.749000000
C    -2.092000000    -3.829000000    -2.004000000
H    -2.524000000    -4.028000000    -1.026000000
C    -3.288000000    -1.662000000    -1.982000000
O    -3.799000000    -0.712000000    -2.907000000
H    -2.537000000    -1.149000000    -1.363000000
O    -4.361000000    -2.128000000    -1.154000000
C    -4.442000000    -1.582000000     0.055000000
C    -3.784000000    -2.219000000     1.077000000
H    -3.375000000    -3.204000000     0.870000000
C    -3.589000000    -1.660000000     2.350000000
O    -2.866000000    -2.308000000     3.356000000
C    -4.135000000    -0.358000000     2.570000000
C    -3.905000000     0.239000000     3.915000000
H    -4.708000000     0.914000000     4.220000000
C    -2.561000000     0.930000000     4.007000000
C    -2.415000000     2.314000000     3.719000000
H    -3.318000000     2.858000000     3.453000000
H    -3.924000000    -0.508000000     4.712000000
C    -4.724000000     0.319000000     1.495000000
H    -5.092000000     1.336000000     1.604000000
C    -4.887000000    -0.296000000     0.262000000
C    -5.503000000     0.448000000    -0.891000000
H    -6.352000000     1.081000000    -0.623000000
H    -5.856000000    -0.143000000    -1.738000000
C    -4.414000000     1.274000000    -1.698000000
C    -4.049000000     2.533000000    -1.192000000
H    -4.581000000     2.917000000    -0.326000000
C    -3.556000000     0.640000000    -2.600000000
C    -2.591000000     1.326000000    -3.223000000
H    -2.053000000     0.771000000    -3.987000000
C    -2.409000000     2.675000000    -2.945000000
O    -1.391000000     3.356000000    -3.592000000
C    -0.141000000     3.285000000    -2.816000000
C     0.974000000     2.823000000    -3.762000000
C     2.277000000     3.266000000    -3.513000000
H     2.467000000     3.932000000    -2.675000000
C     0.727000000     1.948000000    -4.782000000
H    -0.264000000     1.640000000    -5.103000000
O     0.133000000     4.519000000    -2.176000000
H    -0.256000000     2.607000000    -1.958000000
C    -3.090000000     3.284000000    -1.869000000
C    -2.652000000     4.625000000    -1.354000000
H    -3.500000000     4.980000000    -0.765000000
H    -2.534000000     5.371000000    -2.142000000
C    -1.526000000     4.585000000    -0.399000000
C    -1.754000000     4.752000000     0.978000000
H    -2.742000000     4.909000000     1.404000000
C    -0.180000000     4.612000000    -0.823000000
C     0.895000000     4.596000000     0.087000000
H     1.907000000     4.422000000    -0.271000000
C     0.654000000     4.477000000     1.446000000
O     1.681000000     4.052000000     2.294000000
C     1.832000000     2.702000000     2.685000000
C     3.287000000     2.303000000     2.533000000
C     4.072000000     2.766000000     1.443000000
H     3.746000000     3.587000000     0.809000000
C     3.840000000     1.315000000     3.368000000
H     3.233000000     0.905000000     4.171000000
O     1.213000000     2.643000000     3.962000000
H     1.255000000     2.064000000     1.999000000
C    -0.708000000     4.590000000     1.957000000
C    -1.092000000     4.417000000     3.423000000
H    -2.012000000     4.940000000     3.693000000
H    -0.256000000     4.866000000     3.965000000
C    -1.154000000     2.917000000     3.732000000
C    -0.056000000     2.124000000     4.090000000
C    -0.171000000     0.806000000     4.458000000
H     0.704000000     0.254000000     4.792000000
C    -1.431000000     0.221000000     4.442000000
O    -1.441000000    -1.154000000     4.617000000
C    -1.483000000    -1.937000000     3.395000000
H    -1.126000000    -1.464000000     2.468000000
C    -0.570000000    -3.157000000     3.570000000
C    -1.069000000    -4.379000000     3.258000000
H    -2.028000000    -4.508000000     2.764000000
C     0.770000000    -3.004000000     3.991000000
H     1.210000000    -2.015000000     4.085000000
C     1.574000000    -4.127000000     4.137000000
O     2.930000000    -3.955000000     4.474000000
C     1.128000000    -5.352000000     3.720000000
H     1.743000000    -6.241000000     3.830000000
C    -0.199000000    -5.457000000     3.370000000
O    -0.650000000    -6.667000000     2.905000000
C    -1.336000000    -6.867000000     1.688000000
C    -0.798000000    -6.196000000     0.526000000
H     0.195000000    -5.756000000     0.493000000
C    -2.493000000    -7.628000000     1.549000000
H    -2.835000000    -8.201000000     2.407000000
C    -3.193000000    -7.697000000     0.320000000
H    -4.148000000    -8.218000000     0.317000000
C    -2.618000000    -7.070000000    -0.771000000
H    -3.148000000    -7.037000000    -1.719000000
C    -1.444000000    -6.351000000    -0.709000000
O    -0.908000000    -5.860000000    -1.857000000
C    -1.374000000    -4.840000000    -2.610000000
C    -0.999000000    -4.687000000    -3.986000000
H    -0.453000000    -5.440000000    -4.549000000
C    -1.363000000    -3.606000000    -4.786000000
O    -1.276000000    -3.564000000    -6.141000000
C    -0.816000000    -2.391000000    -6.740000000
C     0.200000000    -1.646000000    -6.144000000
H     0.647000000    -2.124000000    -5.276000000
C    -1.554000000    -1.983000000    -7.860000000
H    -2.336000000    -2.604000000    -8.290000000
C    -1.167000000    -0.726000000    -8.430000000
H    -1.499000000    -0.424000000    -9.420000000
C    -0.154000000     0.005000000    -7.880000000
H     0.213000000     0.913000000    -8.352000000
C     0.593000000    -0.429000000    -6.747000000
O     1.750000000     0.282000000    -6.390000000
C     1.784000000     1.344000000    -5.409000000
C     3.068000000     1.777000000    -5.208000000
H     3.925000000     1.359000000    -5.729000000
C     3.308000000     2.740000000    -4.257000000
O     4.607000000     3.162000000    -3.974000000
C     5.039000000     3.822000000    -2.852000000
C     5.255000000     3.165000000    -1.713000000
H     4.968000000     2.120000000    -1.629000000
C     5.465000000     5.144000000    -2.911000000
H     5.567000000     5.717000000    -3.829000000
C     6.103000000     5.769000000    -1.854000000
H     6.619000000     6.685000000    -2.128000000
C     6.401000000     5.068000000    -0.711000000
H     6.986000000     5.513000000     0.090000000
C     5.974000000     3.736000000    -0.640000000
O     6.276000000     3.032000000     0.520000000
C     5.432000000     2.285000000     1.335000000
C     5.909000000     1.376000000     2.256000000
H     6.968000000     1.153000000     2.147000000
C     5.101000000     0.833000000     3.243000000
O     5.545000000    -0.040000000     4.175000000
C     4.733000000    -0.855000000     4.962000000
C     4.442000000    -0.651000000     6.327000000
H     4.878000000     0.177000000     6.881000000
C     3.652000000    -1.540000000     7.094000000
H     3.428000000    -1.383000000     8.146000000
C     3.069000000    -2.602000000     6.421000000
H     2.345000000    -3.205000000     6.964000000
C     3.380000000    -2.872000000     5.127000000
C     4.187000000    -1.995000000     4.398000000
H     4.227000000    -2.257000000     3.344000000
C     2.192000000    -2.235000000     0.919000000
H     2.857000000    -2.580000000     1.707000000
C     1.512000000    -1.038000000     1.144000000
H     1.622000000    -0.403000000     2.020000000
C     0.556000000    -0.662000000     0.169000000
H    -0.096000000     0.175000000     0.409000000
C     0.369000000    -1.419000000    -1.004000000
H    -0.435000000    -1.118000000    -1.671000000
C     1.083000000    -2.608000000    -1.171000000
H     0.737000000    -3.299000000    -1.935000000
C     1.997000000    -3.048000000    -0.197000000
C     2.671000000    -4.380000000    -0.373000000
O     2.520000000    -5.018000000    -1.368000000
O     3.585000000    -4.609000000     0.392000000
O     6.106000000    -2.813000000    -3.064000000
H     5.244000000    -2.416000000    -3.186000000
H     5.921000000    -3.726000000    -2.843000000
O     5.901000000    -3.419000000     0.562000000
H     5.719000000    -2.594000000     0.112000000
H     5.061000000    -3.879000000     0.570000000
O     4.479000000    -7.268000000     1.476000000
H     4.521000000    -6.328000000     1.306000000
H     3.567000000    -7.503000000     1.301000000
O     4.816000000    -1.170000000    -0.597000000
H     5.413000000    -0.600000000    -1.081000000
H     3.944000000    -0.916000000    -0.900000000
O     3.765000000    -2.114000000    -4.746000000
H     4.556000000    -1.631000000    -4.988000000
H     3.593000000    -2.682000000    -5.497000000
O     2.884000000    -0.443000000    -2.497000000
H     3.014000000    -0.788000000    -3.380000000
H     2.106000000    -0.897000000    -2.174000000
O     1.223000000    -6.721000000    -3.267000000
H     1.204000000    -5.850000000    -2.870000000
H     1.727000000    -7.254000000    -2.652000000
O     3.037000000    -7.549000000    -1.113000000
H     3.835000000    -7.683000000    -1.625000000
H     2.834000000    -6.620000000    -1.226000000
O     8.400000000    -3.098000000     1.304000000
H     7.482000000    -3.068000000     1.035000000
H     8.658000000    -2.180000000     1.380000000
O     1.040000000    -8.979000000     3.068000000
H     0.864000000    -8.799000000     2.144000000
H     0.283000000    -8.618000000     3.530000000
O     6.064000000    -8.409000000     3.255000000
H     6.794000000    -7.820000000     3.446000000
H     5.470000000    -7.888000000     2.716000000
O     7.016000000    -8.617000000    -0.270000000
H     6.464000000    -8.523000000     0.507000000
H     7.681000000    -7.936000000    -0.175000000
O     0.842000000    -8.767000000     0.303000000
H     1.639000000    -8.539000000    -0.176000000
H     0.272000000    -9.166000000    -0.354000000
O    -0.491000000    -8.600000000    -4.295000000
H     0.232000000    -8.593000000    -4.922000000
H    -0.279000000    -7.900000000    -3.677000000
O     5.367000000    -4.669000000     3.385000000
H     4.455000000    -4.821000000     3.633000000
H     5.316000000    -4.087000000     2.627000000
O     5.841000000    -6.935000000    -4.192000000
H     5.912000000    -6.357000000    -3.433000000
H     5.624000000    -7.791000000    -3.823000000
O     5.461000000    -5.486000000    -1.734000000
H     6.147000000    -5.613000000    -1.078000000
H     4.657000000    -5.389000000    -1.224000000
O     7.548000000    -0.801000000    -2.295000000
H     7.113000000    -1.614000000    -2.552000000
H     7.246000000    -0.156000000    -2.935000000
O     3.136000000    -5.235000000    -4.692000000
H     2.689000000    -6.038000000    -4.958000000
H     3.582000000    -5.468000000    -3.878000000
