215
-1451.97756
C    -2.319000000     2.401000000     4.396000000
H    -3.341000000     2.046000000     4.294000000
C    -1.635000000     2.970000000     3.263000000
C    -0.323000000     3.359000000     3.282000000
H     0.188000000     3.607000000     2.355000000
C    -2.322000000     2.953000000     1.876000000
O    -3.743000000     2.774000000     1.906000000
H    -1.860000000     2.086000000     1.380000000
O    -2.027000000     4.242000000     1.210000000
C    -1.791000000     4.233000000    -0.141000000
C    -0.495000000     4.614000000    -0.498000000
H     0.329000000     4.811000000     0.183000000
C    -0.167000000     4.505000000    -1.808000000
O     1.164000000     4.514000000    -2.127000000
C    -1.033000000     4.119000000    -2.770000000
C    -0.555000000     3.728000000    -4.165000000
H    -1.285000000     3.957000000    -4.944000000
C    -0.121000000     2.257000000    -4.208000000
C    -0.947000000     1.208000000    -4.538000000
H    -2.017000000     1.373000000    -4.633000000
H     0.327000000     4.330000000    -4.395000000
C    -2.307000000     3.834000000    -2.437000000
H    -3.039000000     3.496000000    -3.166000000
C    -2.722000000     3.857000000    -1.109000000
C    -4.193000000     3.584000000    -0.803000000
H    -4.878000000     3.819000000    -1.621000000
H    -4.526000000     4.353000000    -0.103000000
C    -4.467000000     2.189000000    -0.313000000
C    -4.892000000     1.163000000    -1.194000000
H    -5.004000000     1.354000000    -2.258000000
C    -4.257000000     1.875000000     1.044000000
C    -4.390000000     0.577000000     1.414000000
H    -4.258000000     0.308000000     2.459000000
C    -4.769000000    -0.455000000     0.500000000
O    -4.711000000    -1.740000000     0.983000000
C    -3.593000000    -2.543000000     0.525000000
C    -2.935000000    -3.291000000     1.716000000
C    -2.296000000    -4.509000000     1.515000000
H    -2.474000000    -5.062000000     0.596000000
C    -2.735000000    -2.651000000     2.938000000
H    -3.217000000    -1.690000000     3.095000000
O    -3.889000000    -3.308000000    -0.644000000
H    -2.803000000    -1.830000000     0.245000000
C    -4.921000000    -0.195000000    -0.854000000
C    -5.250000000    -1.264000000    -1.885000000
H    -5.873000000    -0.848000000    -2.680000000
H    -6.009000000    -1.856000000    -1.370000000
C    -3.927000000    -1.828000000    -2.467000000
C    -3.389000000    -1.336000000    -3.667000000
H    -3.677000000    -0.387000000    -4.112000000
C    -3.374000000    -2.892000000    -1.854000000
C    -2.168000000    -3.438000000    -2.230000000
H    -1.747000000    -4.250000000    -1.642000000
C    -1.523000000    -2.903000000    -3.344000000
O    -0.279000000    -3.431000000    -3.668000000
C     0.842000000    -2.540000000    -3.195000000
C     2.018000000    -3.312000000    -2.630000000
C     1.750000000    -4.549000000    -2.068000000
H     0.745000000    -4.964000000    -2.061000000
C     3.272000000    -2.683000000    -2.498000000
H     3.358000000    -1.646000000    -2.812000000
O     1.366000000    -1.687000000    -4.244000000
H     0.387000000    -1.888000000    -2.434000000
C    -2.130000000    -1.798000000    -4.058000000
C    -1.460000000    -1.197000000    -5.269000000
H    -2.183000000    -0.778000000    -5.972000000
H    -0.791000000    -1.935000000    -5.717000000
C    -0.488000000    -0.114000000    -4.696000000
C     0.865000000    -0.373000000    -4.468000000
C     1.744000000     0.646000000    -4.039000000
H     2.711000000     0.257000000    -3.730000000
C     1.255000000     1.965000000    -3.996000000
O     2.158000000     2.895000000    -3.580000000
C     2.090000000     3.310000000    -2.170000000
H     1.556000000     2.538000000    -1.597000000
C     3.458000000     3.508000000    -1.513000000
C     3.515000000     4.191000000    -0.360000000
H     2.716000000     4.850000000    -0.029000000
C     4.499000000     2.670000000    -1.916000000
H     4.259000000     1.960000000    -2.704000000
C     5.783000000     2.799000000    -1.328000000
O     6.781000000     1.890000000    -1.545000000
C     5.888000000     3.679000000    -0.245000000
H     6.843000000     3.752000000     0.269000000
C     4.807000000     4.337000000     0.253000000
O     4.927000000     5.197000000     1.374000000
C     3.947000000     5.400000000     2.304000000
C     3.140000000     4.366000000     2.762000000
H     3.291000000     3.376000000     2.338000000
C     3.808000000     6.674000000     2.853000000
H     4.374000000     7.500000000     2.430000000
C     2.938000000     6.825000000     3.938000000
H     2.781000000     7.786000000     4.421000000
C     2.206000000     5.767000000     4.424000000
H     1.793000000     5.855000000     5.426000000
C     2.237000000     4.498000000     3.843000000
O     1.724000000     3.394000000     4.444000000
C     0.382000000     3.199000000     4.459000000
C    -0.211000000     2.684000000     5.570000000
H     0.355000000     2.471000000     6.473000000
C    -1.539000000     2.336000000     5.582000000
O    -1.942000000     1.676000000     6.694000000
C    -2.622000000     0.482000000     6.546000000
C    -1.858000000    -0.560000000     6.070000000
H    -0.803000000    -0.437000000     5.841000000
C    -3.951000000     0.286000000     6.893000000
H    -4.595000000     0.959000000     7.454000000
C    -4.595000000    -0.905000000     6.601000000
H    -5.648000000    -1.021000000     6.846000000
C    -3.876000000    -1.896000000     5.992000000
H    -4.398000000    -2.775000000     5.622000000
C    -2.517000000    -1.750000000     5.698000000
O    -1.825000000    -2.761000000     5.178000000
C    -1.988000000    -3.235000000     3.924000000
C    -1.404000000    -4.465000000     3.714000000
H    -0.907000000    -4.974000000     4.536000000
C    -1.460000000    -5.041000000     2.479000000
O    -0.862000000    -6.292000000     2.322000000
C    -0.461000000    -6.786000000     1.142000000
C     0.732000000    -6.256000000     0.709000000
H     1.273000000    -5.438000000     1.177000000
C    -1.111000000    -7.794000000     0.457000000
H    -2.153000000    -7.926000000     0.738000000
C    -0.470000000    -8.458000000    -0.567000000
H    -0.862000000    -9.287000000    -1.150000000
C     0.769000000    -7.965000000    -1.020000000
H     1.298000000    -8.318000000    -1.901000000
C     1.355000000    -6.877000000    -0.404000000
O     2.569000000    -6.423000000    -0.801000000
C     2.784000000    -5.251000000    -1.451000000
C     4.024000000    -4.661000000    -1.214000000
H     4.767000000    -5.243000000    -0.675000000
C     4.253000000    -3.383000000    -1.760000000
O     5.466000000    -2.767000000    -1.437000000
C     5.973000000    -1.690000000    -2.096000000
C     6.479000000    -1.844000000    -3.368000000
H     6.346000000    -2.745000000    -3.961000000
C     6.967000000    -0.749000000    -4.043000000
H     7.322000000    -0.836000000    -5.067000000
C     6.982000000     0.500000000    -3.386000000
H     7.216000000     1.288000000    -4.098000000
C     6.612000000     0.663000000    -2.102000000
C     6.110000000    -0.510000000    -1.446000000
H     5.713000000    -0.452000000    -0.436000000
C     2.491000000    -1.184000000     0.620000000
H     3.540000000    -1.351000000     0.389000000
C     1.672000000    -0.454000000    -0.250000000
H     2.103000000    -0.022000000    -1.149000000
C     0.337000000    -0.233000000     0.012000000
H    -0.218000000     0.423000000    -0.666000000
C    -0.155000000    -0.726000000     1.201000000
H    -1.189000000    -0.516000000     1.462000000
C     0.644000000    -1.588000000     2.006000000
H     0.208000000    -1.955000000     2.931000000
C     1.954000000    -1.813000000     1.712000000
C     2.756000000    -2.667000000     2.639000000
O     2.344000000    -3.117000000     3.706000000
O     3.914000000    -2.866000000     2.403000000
O     9.113000000    -1.961000000     2.503000000
H     8.264000000    -2.363000000     2.317000000
H     9.684000000    -2.698000000     2.720000000
O     3.974000000    -3.329000000     5.796000000
H     3.120000000    -3.297000000     6.228000000
H     3.769000000    -3.335000000     4.861000000
O     4.085000000    -5.718000000     3.061000000
H     3.744000000    -4.876000000     2.759000000
H     4.668000000    -5.494000000     3.786000000
O     3.941000000     0.501000000     3.611000000
H     4.002000000     0.676000000     2.672000000
H     4.770000000     0.077000000     3.830000000
O     6.520000000    -2.637000000     6.132000000
H     5.655000000    -3.007000000     5.958000000
H     6.345000000    -1.739000000     6.412000000
O     7.359000000     0.692000000     1.738000000
H     7.549000000     1.541000000     2.138000000
H     8.215000000     0.351000000     1.481000000
O     6.420000000    -0.606000000     4.082000000
H     6.464000000    -1.207000000     3.338000000
H     6.592000000    -1.157000000     4.846000000
O     4.427000000    -7.612000000     1.061000000
H     4.055000000    -7.102000000     1.780000000
H     3.975000000    -7.291000000     0.280000000
O    -1.046000000    -5.779000000     6.862000000
H    -0.742000000    -6.459000000     7.463000000
H    -0.243000000    -5.375000000     6.532000000
O     4.463000000     2.438000000     5.754000000
H     4.230000000     1.887000000     5.007000000
H     5.406000000     2.576000000     5.664000000
O     4.782000000     1.212000000     1.195000000
H     5.655000000     0.920000000     1.459000000
H     4.836000000     1.300000000     0.243000000
O     6.627000000    -3.113000000     1.928000000
H     5.682000000    -3.019000000     2.052000000
H     6.732000000    -3.263000000     0.988000000
O     5.732000000    -0.472000000     7.542000000
H     6.112000000     0.393000000     7.392000000
H     4.794000000    -0.352000000     7.391000000
O     1.377000000    -7.807000000     4.060000000
H     0.533000000    -7.896000000     3.616000000
H     1.580000000    -6.874000000     4.005000000
O     1.763000000    -0.775000000     5.040000000
H     2.190000000    -0.189000000     4.414000000
H     2.045000000    -1.651000000     4.779000000
O     1.874000000    -2.971000000     7.823000000
H     1.892000000    -2.014000000     7.831000000
H     1.060000000    -3.198000000     8.272000000
O     1.356000000    -4.943000000     5.725000000
H     1.877000000    -4.668000000     4.971000000
H     1.491000000    -4.253000000     6.375000000
O     1.955000000    -0.320000000     7.742000000
H     1.719000000    -0.463000000     6.825000000
H     2.484000000     0.477000000     7.732000000
O     5.540000000    -5.619000000     5.928000000
H     5.193000000    -6.305000000     6.498000000
H     4.976000000    -4.864000000     6.091000000
