215
-1477.96731
C    -0.623000000     2.695000000     4.302000000
H    -1.703000000     2.571000000     4.314000000
C     0.012000000     3.343000000     3.232000000
C     1.381000000     3.650000000     3.279000000
H     1.801000000     4.115000000     2.390000000
C    -0.823000000     3.677000000     1.989000000
O    -2.256000000     3.775000000     2.250000000
H    -0.559000000     2.894000000     1.263000000
O    -0.342000000     4.855000000     1.269000000
C    -0.218000000     4.756000000    -0.116000000
C     1.082000000     4.607000000    -0.679000000
H     1.988000000     4.646000000    -0.080000000
C     1.196000000     4.173000000    -2.006000000
O     2.459000000     3.690000000    -2.283000000
C     0.144000000     3.989000000    -2.891000000
C     0.302000000     3.552000000    -4.350000000
H    -0.531000000     3.868000000    -4.981000000
C     0.338000000     2.089000000    -4.494000000
C    -0.883000000     1.406000000    -4.830000000
H    -1.817000000     1.961000000    -4.867000000
H     1.149000000     4.087000000    -4.786000000
C    -1.104000000     4.205000000    -2.288000000
H    -2.041000000     4.048000000    -2.816000000
C    -1.305000000     4.586000000    -0.967000000
C    -2.751000000     4.751000000    -0.359000000
H    -3.391000000     5.090000000    -1.176000000
H    -2.845000000     5.595000000     0.327000000
C    -3.358000000     3.465000000     0.184000000
C    -4.096000000     2.684000000    -0.646000000
H    -4.249000000     2.993000000    -1.677000000
C    -3.027000000     3.026000000     1.426000000
C    -3.613000000     1.844000000     1.914000000
H    -3.484000000     1.505000000     2.939000000
C    -4.371000000     1.024000000     1.034000000
O    -4.825000000    -0.163000000     1.527000000
C    -4.055000000    -1.316000000     1.130000000
C    -3.910000000    -2.360000000     2.269000000
C    -3.773000000    -3.720000000     2.004000000
H    -3.950000000    -4.216000000     1.053000000
C    -3.717000000    -1.820000000     3.523000000
H    -3.885000000    -0.755000000     3.663000000
O    -4.783000000    -1.914000000    -0.055000000
H    -3.043000000    -1.030000000     0.807000000
C    -4.611000000     1.431000000    -0.264000000
C    -5.395000000     0.709000000    -1.294000000
H    -5.781000000     1.345000000    -2.094000000
H    -6.254000000     0.191000000    -0.862000000
C    -4.543000000    -0.417000000    -1.953000000
C    -3.965000000    -0.103000000    -3.169000000
H    -4.311000000     0.782000000    -3.695000000
C    -4.180000000    -1.586000000    -1.273000000
C    -3.301000000    -2.531000000    -1.787000000
H    -3.172000000    -3.470000000    -1.255000000
C    -2.692000000    -2.204000000    -3.032000000
O    -1.783000000    -3.175000000    -3.558000000
C    -0.383000000    -2.719000000    -3.380000000
C     0.488000000    -3.829000000    -2.857000000
C     0.144000000    -4.519000000    -1.672000000
H    -0.728000000    -4.283000000    -1.066000000
C     1.806000000    -3.960000000    -3.274000000
H     2.142000000    -3.249000000    -4.024000000
O     0.153000000    -2.119000000    -4.587000000
H    -0.282000000    -1.924000000    -2.626000000
C    -3.017000000    -0.984000000    -3.687000000
C    -2.400000000    -0.712000000    -5.047000000
H    -2.958000000     0.020000000    -5.634000000
H    -2.460000000    -1.678000000    -5.553000000
C    -0.994000000     0.006000000    -4.828000000
C     0.215000000    -0.746000000    -4.599000000
C     1.422000000    -0.045000000    -4.303000000
H     2.305000000    -0.603000000    -4.001000000
C     1.495000000     1.362000000    -4.243000000
O     2.663000000     1.887000000    -3.817000000
C     2.719000000     2.248000000    -2.378000000
H     1.833000000     1.785000000    -1.918000000
C     4.034000000     1.856000000    -1.753000000
C     4.573000000     2.712000000    -0.814000000
H     4.129000000     3.648000000    -0.484000000
C     4.576000000     0.645000000    -2.079000000
H     4.198000000     0.077000000    -2.925000000
C     5.692000000     0.180000000    -1.411000000
O     6.315000000    -1.007000000    -1.767000000
C     6.333000000     1.029000000    -0.528000000
H     7.279000000     0.745000000    -0.074000000
C     5.793000000     2.295000000    -0.203000000
O     6.368000000     3.009000000     0.793000000
C     5.751000000     3.848000000     1.690000000
C     4.902000000     3.267000000     2.720000000
H     4.655000000     2.209000000     2.760000000
C     5.937000000     5.286000000     1.667000000
H     6.544000000     5.628000000     0.832000000
C     5.357000000     6.064000000     2.657000000
H     5.515000000     7.139000000     2.649000000
C     4.502000000     5.522000000     3.595000000
H     4.008000000     6.163000000     4.321000000
C     4.274000000     4.119000000     3.596000000
O     3.470000000     3.587000000     4.575000000
C     2.121000000     3.272000000     4.419000000
C     1.520000000     2.619000000     5.451000000
H     2.194000000     2.438000000     6.284000000
C     0.187000000     2.349000000     5.410000000
O    -0.249000000     1.664000000     6.487000000
C    -1.487000000     1.084000000     6.467000000
C    -1.615000000    -0.202000000     6.043000000
H    -0.763000000    -0.811000000     5.750000000
C    -2.634000000     1.845000000     6.744000000
H    -2.533000000     2.873000000     7.085000000
C    -3.894000000     1.279000000     6.789000000
H    -4.804000000     1.815000000     7.046000000
C    -4.024000000    -0.034000000     6.499000000
H    -4.994000000    -0.504000000     6.636000000
C    -2.936000000    -0.743000000     6.074000000
O    -3.035000000    -2.104000000     5.792000000
C    -3.350000000    -2.649000000     4.591000000
C    -3.335000000    -4.059000000     4.431000000
H    -2.994000000    -4.655000000     5.273000000
C    -3.518000000    -4.525000000     3.101000000
O    -3.403000000    -5.892000000     2.821000000
C    -2.687000000    -6.356000000     1.743000000
C    -1.407000000    -5.956000000     1.524000000
H    -0.973000000    -5.241000000     2.217000000
C    -3.228000000    -7.416000000     1.057000000
H    -4.231000000    -7.794000000     1.239000000
C    -2.479000000    -7.999000000     0.061000000
H    -2.824000000    -8.983000000    -0.245000000
C    -1.234000000    -7.519000000    -0.274000000
H    -0.627000000    -8.024000000    -1.021000000
C    -0.713000000    -6.471000000     0.407000000
O     0.583000000    -6.055000000     0.087000000
C     0.967000000    -5.452000000    -1.086000000
C     2.266000000    -5.661000000    -1.635000000
H     3.020000000    -6.318000000    -1.210000000
C     2.720000000    -4.862000000    -2.704000000
O     3.982000000    -5.011000000    -3.164000000
C     4.758000000    -3.884000000    -3.468000000
C     5.167000000    -3.612000000    -4.737000000
H     4.812000000    -4.254000000    -5.539000000
C     5.912000000    -2.465000000    -5.131000000
H     6.107000000    -2.155000000    -6.155000000
C     6.186000000    -1.584000000    -4.063000000
H     6.663000000    -0.655000000    -4.364000000
C     5.886000000    -1.871000000    -2.745000000
C     5.127000000    -3.005000000    -2.458000000
H     4.910000000    -3.267000000    -1.426000000
C     2.116000000    -2.122000000    -0.019000000
H     3.130000000    -2.440000000    -0.247000000
C     1.432000000    -1.147000000    -0.694000000
H     1.849000000    -0.745000000    -1.613000000
C     0.208000000    -0.600000000    -0.260000000
H    -0.309000000     0.162000000    -0.827000000
C    -0.305000000    -1.090000000     0.955000000
H    -1.180000000    -0.619000000     1.395000000
C     0.317000000    -2.144000000     1.578000000
H    -0.202000000    -2.595000000     2.420000000
C     1.554000000    -2.616000000     1.192000000
C     2.215000000    -3.641000000     2.129000000
O     1.551000000    -4.255000000     2.924000000
O     3.436000000    -3.721000000     2.149000000
O     7.232000000    -2.195000000     1.357000000
H     6.459000000    -1.632000000     1.412000000
H     6.882000000    -3.085000000     1.393000000
O     2.886000000    -9.098000000     0.314000000
H     2.218000000    -9.465000000     0.894000000
H     2.983000000    -8.191000000     0.603000000
O     4.718000000    -1.378000000     2.151000000
H     3.911000000    -0.868000000     2.227000000
H     4.447000000    -2.280000000     2.319000000
O    -0.322000000    -6.622000000     5.627000000
H    -0.465000000    -7.338000000     6.247000000
H     0.488000000    -6.856000000     5.174000000
O     4.001000000    -3.132000000     5.132000000
H     3.796000000    -3.193000000     4.199000000
H     3.176000000    -2.872000000     5.542000000
O     5.784000000    -7.906000000     1.514000000
H     4.945000000    -7.746000000     1.947000000
H     5.684000000    -7.515000000     0.646000000
O     4.463000000    -4.740000000     7.359000000
H     3.579000000    -5.056000000     7.547000000
H     4.375000000    -4.260000000     6.536000000
O     1.668000000    -9.262000000     3.539000000
H     2.520000000    -9.684000000     3.654000000
H     1.838000000    -8.333000000     3.699000000
O     4.622000000     0.430000000     5.346000000
H     5.372000000     0.300000000     4.766000000
H     4.017000000    -0.276000000     5.117000000
O     6.576000000     0.390000000     2.973000000
H     7.481000000     0.130000000     2.800000000
H     6.049000000    -0.211000000     2.447000000
O     5.885000000    -4.777000000     1.619000000
H     5.056000000    -4.460000000     1.977000000
H     5.706000000    -4.917000000     0.689000000
O     2.214000000    -6.487000000     4.212000000
H     2.332000000    -5.615000000     3.836000000
H     3.096000000    -6.765000000     4.456000000
O     2.241000000    -0.207000000     2.841000000
H     1.500000000    -0.590000000     2.371000000
H     2.039000000    -0.354000000     3.765000000
O     4.546000000    -7.554000000     5.383000000
H     4.176000000    -7.672000000     6.257000000
H     5.246000000    -6.913000000     5.503000000
O     6.748000000    -3.214000000     5.487000000
H     5.811000000    -3.068000000     5.355000000
H     6.807000000    -4.112000000     5.813000000
O     0.245000000    -4.078000000     5.180000000
H    -0.220000000    -4.879000000     5.421000000
H     0.726000000    -4.310000000     4.386000000
O     5.854000000    -6.560000000    -0.890000000
H     6.716000000    -6.144000000    -0.896000000
H     5.351000000    -6.079000000    -1.547000000
O     1.439000000    -1.670000000     5.391000000
H     1.641000000    -1.679000000     6.326000000
H     0.920000000    -2.462000000     5.250000000
O     3.003000000    -6.580000000     1.312000000
H     3.547000000    -5.875000000     1.665000000
H     2.112000000    -6.231000000     1.340000000
