215
-1461.16894
C    -0.396000000     1.534000000     4.541000000
H    -1.133000000     0.766000000     4.322000000
C    -0.324000000     2.788000000     3.896000000
C     0.690000000     3.648000000     4.211000000
H     0.725000000     4.662000000     3.821000000
C    -1.321000000     3.150000000     2.808000000
O    -2.759000000     2.948000000     3.119000000
H    -1.010000000     2.506000000     1.971000000
O    -1.060000000     4.482000000     2.367000000
C    -0.946000000     4.572000000     1.007000000
C     0.309000000     4.799000000     0.402000000
H     1.220000000     4.911000000     0.985000000
C     0.393000000     4.698000000    -1.014000000
O     1.622000000     4.383000000    -1.530000000
C    -0.780000000     4.538000000    -1.774000000
C    -0.730000000     4.354000000    -3.321000000
H    -1.676000000     4.692000000    -3.750000000
C    -0.658000000     2.897000000    -3.703000000
C    -1.690000000     2.137000000    -4.229000000
H    -2.696000000     2.531000000    -4.108000000
H     0.029000000     4.970000000    -3.809000000
C    -2.002000000     4.490000000    -1.159000000
H    -2.874000000     4.344000000    -1.791000000
C    -2.141000000     4.554000000     0.218000000
C    -3.554000000     4.352000000     0.836000000
H    -4.335000000     4.804000000     0.221000000
H    -3.675000000     4.916000000     1.763000000
C    -3.921000000     2.944000000     1.061000000
C    -4.687000000     2.290000000     0.084000000
H    -4.867000000     2.830000000    -0.842000000
C    -3.469000000     2.303000000     2.172000000
C    -3.762000000     0.990000000     2.451000000
H    -3.465000000     0.540000000     3.395000000
C    -4.494000000     0.264000000     1.511000000
O    -4.626000000    -1.092000000     1.684000000
C    -3.699000000    -1.919000000     1.012000000
C    -3.152000000    -3.074000000     1.945000000
C    -2.770000000    -4.348000000     1.439000000
H    -2.936000000    -4.576000000     0.389000000
C    -2.971000000    -2.837000000     3.279000000
H    -3.385000000    -1.930000000     3.713000000
O    -4.273000000    -2.522000000    -0.128000000
H    -2.834000000    -1.344000000     0.649000000
C    -4.985000000     0.936000000     0.312000000
C    -5.513000000     0.048000000    -0.758000000
H    -6.128000000     0.685000000    -1.397000000
H    -6.219000000    -0.688000000    -0.369000000
C    -4.570000000    -0.688000000    -1.704000000
C    -4.231000000    -0.196000000    -2.981000000
H    -4.423000000     0.825000000    -3.300000000
C    -4.028000000    -1.937000000    -1.373000000
C    -3.089000000    -2.553000000    -2.169000000
H    -2.545000000    -3.421000000    -1.806000000
C    -2.705000000    -2.011000000    -3.396000000
O    -1.616000000    -2.550000000    -4.076000000
C    -0.317000000    -1.931000000    -3.927000000
C     0.748000000    -3.044000000    -3.775000000
C     0.542000000    -4.154000000    -3.029000000
H    -0.404000000    -4.181000000    -2.494000000
C     1.980000000    -2.911000000    -4.411000000
H     2.177000000    -2.142000000    -5.153000000
O    -0.080000000    -1.038000000    -5.067000000
H    -0.273000000    -1.346000000    -2.997000000
C    -3.320000000    -0.780000000    -3.830000000
C    -2.822000000    -0.037000000    -5.073000000
H    -3.663000000     0.373000000    -5.636000000
H    -2.513000000    -0.841000000    -5.743000000
C    -1.566000000     0.836000000    -4.759000000
C    -0.233000000     0.351000000    -4.886000000
C     0.816000000     1.070000000    -4.466000000
H     1.825000000     0.724000000    -4.679000000
C     0.611000000     2.292000000    -3.825000000
O     1.741000000     2.832000000    -3.330000000
C     1.878000000     2.997000000    -1.906000000
H     1.149000000     2.385000000    -1.354000000
C     3.281000000     2.500000000    -1.474000000
C     3.848000000     3.106000000    -0.302000000
H     3.384000000     3.937000000     0.221000000
C     3.893000000     1.398000000    -2.070000000
H     3.532000000     0.965000000    -3.000000000
C     5.015000000     0.887000000    -1.453000000
O     5.815000000    -0.127000000    -1.951000000
C     5.544000000     1.342000000    -0.264000000
H     6.473000000     0.984000000     0.171000000
C     4.945000000     2.430000000     0.369000000
O     5.396000000     2.964000000     1.506000000
C     4.861000000     3.936000000     2.345000000
C     3.984000000     3.579000000     3.341000000
H     3.633000000     2.554000000     3.428000000
C     5.401000000     5.240000000     2.267000000
H     6.197000000     5.492000000     1.571000000
C     4.847000000     6.230000000     3.077000000
H     5.236000000     7.245000000     3.072000000
C     3.903000000     5.850000000     4.077000000
H     3.632000000     6.511000000     4.897000000
C     3.485000000     4.537000000     4.219000000
O     2.749000000     4.179000000     5.287000000
C     1.705000000     3.318000000     5.064000000
C     1.659000000     2.124000000     5.755000000
H     2.438000000     1.818000000     6.449000000
C     0.623000000     1.254000000     5.490000000
O     0.654000000     0.085000000     6.175000000
C    -0.467000000    -0.565000000     6.602000000
C    -0.771000000    -1.711000000     5.893000000
H    -0.125000000    -2.012000000     5.072000000
C    -1.439000000     0.053000000     7.482000000
H    -1.344000000     1.021000000     7.967000000
C    -2.724000000    -0.531000000     7.567000000
H    -3.452000000    -0.054000000     8.219000000
C    -2.927000000    -1.759000000     6.924000000
H    -3.910000000    -2.216000000     7.001000000
C    -2.007000000    -2.334000000     6.090000000
O    -2.341000000    -3.549000000     5.527000000
C    -2.347000000    -3.779000000     4.139000000
C    -1.946000000    -4.983000000     3.670000000
H    -1.595000000    -5.669000000     4.436000000
C    -2.138000000    -5.290000000     2.274000000
O    -1.762000000    -6.469000000     1.760000000
C    -1.410000000    -6.682000000     0.432000000
C    -0.189000000    -6.086000000    -0.103000000
H     0.358000000    -5.342000000     0.470000000
C    -2.029000000    -7.701000000    -0.278000000
H    -2.880000000    -8.205000000     0.173000000
C    -1.454000000    -8.112000000    -1.479000000
H    -1.944000000    -8.924000000    -2.008000000
C    -0.318000000    -7.512000000    -2.033000000
H     0.053000000    -7.883000000    -2.985000000
C     0.297000000    -6.511000000    -1.334000000
O     1.479000000    -6.026000000    -1.891000000
C     1.530000000    -5.127000000    -2.893000000
C     2.718000000    -5.012000000    -3.615000000
H     3.480000000    -5.764000000    -3.426000000
C     2.981000000    -3.825000000    -4.219000000
O     4.231000000    -3.633000000    -4.820000000
C     4.997000000    -2.503000000    -4.633000000
C     5.842000000    -2.110000000    -5.610000000
H     5.834000000    -2.674000000    -6.539000000
C     6.803000000    -1.095000000    -5.401000000
H     7.502000000    -0.896000000    -6.209000000
C     6.748000000    -0.446000000    -4.115000000
H     7.482000000     0.313000000    -3.858000000
C     5.758000000    -0.720000000    -3.175000000
C     4.886000000    -1.788000000    -3.419000000
H     4.233000000    -2.117000000    -2.615000000
C     2.138000000    -1.059000000     0.142000000
H     3.055000000    -1.273000000    -0.400000000
C     1.118000000    -0.323000000    -0.525000000
H     1.377000000     0.031000000    -1.520000000
C    -0.036000000    -0.005000000     0.096000000
H    -0.803000000     0.630000000    -0.347000000
C    -0.273000000    -0.463000000     1.434000000
H    -1.217000000    -0.323000000     1.954000000
C     0.692000000    -1.264000000     2.077000000
H     0.432000000    -1.607000000     3.075000000
C     1.914000000    -1.629000000     1.422000000
C     2.902000000    -2.567000000     2.062000000
O     2.995000000    -2.661000000     3.260000000
O     3.602000000    -3.149000000     1.282000000
O     5.001000000    -0.871000000     3.418000000
H     5.185000000    -1.226000000     2.549000000
H     4.151000000    -1.242000000     3.653000000
O     6.025000000    -6.262000000     5.745000000
H     5.602000000    -5.670000000     5.124000000
H     6.661000000    -6.747000000     5.218000000
O     4.684000000    -4.203000000     4.688000000
H     4.149000000    -3.883000000     3.962000000
H     4.231000000    -3.896000000     5.474000000
O     0.781000000    -4.180000000     7.366000000
H     1.263000000    -3.361000000     7.485000000
H     1.114000000    -4.537000000     6.543000000
O     5.978000000     1.094000000     4.872000000
H     5.549000000     0.362000000     4.430000000
H     6.889000000     1.050000000     4.580000000
O     2.721000000    -1.878000000     6.934000000
H     2.839000000    -1.161000000     7.557000000
H     2.470000000    -1.446000000     6.117000000
O     2.241000000    -7.154000000     4.087000000
H     2.835000000    -7.904000000     4.123000000
H     2.586000000    -6.607000000     3.382000000
O     3.977000000    -4.559000000    -0.826000000
H     3.131000000    -4.997000000    -0.922000000
H     3.833000000    -3.909000000    -0.138000000
O     8.256000000    -1.362000000    -0.012000000
H     7.434000000    -1.781000000     0.245000000
H     8.588000000    -0.971000000     0.796000000
O     6.230000000    -2.863000000     1.452000000
H     5.304000000    -2.824000000     1.211000000
H     6.443000000    -3.796000000     1.433000000
O     3.826000000    -5.670000000     2.241000000
H     3.676000000    -4.818000000     1.830000000
H     4.774000000    -5.712000000     2.366000000
O     3.920000000    -4.071000000     8.541000000
H     3.814000000    -3.922000000     9.481000000
H     3.629000000    -3.254000000     8.135000000
O     6.960000000    -5.471000000     1.272000000
H     7.265000000    -5.770000000     0.415000000
H     7.540000000    -5.905000000     1.897000000
O     3.548000000    -8.088000000     0.492000000
H     3.206000000    -7.288000000     0.891000000
H     3.093000000    -8.796000000     0.949000000
O     6.910000000    -2.654000000     4.770000000
H     6.214000000    -3.298000000     4.636000000
H     6.586000000    -1.860000000     4.345000000
O     1.770000000    -4.372000000     4.739000000
H     2.080000000    -5.184000000     4.338000000
H     1.937000000    -3.700000000     4.079000000
O     6.324000000    -5.903000000    -2.014000000
H     5.607000000    -5.320000000    -1.763000000
H     7.077000000    -5.323000000    -2.125000000
O     8.674000000    -5.976000000     3.499000000
H     8.334000000    -5.082000000     3.482000000
H     9.509000000    -5.907000000     3.963000000
O     8.902000000    -3.181000000     2.768000000
H     8.044000000    -3.008000000     2.381000000
H     8.785000000    -3.003000000     3.701000000
