215
-1464.45279
C    -1.311000000     1.944000000     4.878000000
H    -2.258000000     1.412000000     4.849000000
C    -0.792000000     2.789000000     3.856000000
C     0.462000000     3.375000000     4.078000000
H     0.877000000     4.007000000     3.298000000
C    -1.601000000     3.020000000     2.546000000
O    -3.077000000     2.929000000     2.789000000
H    -1.201000000     2.246000000     1.875000000
O    -1.236000000     4.275000000     1.924000000
C    -1.093000000     4.375000000     0.561000000
C     0.186000000     4.369000000     0.146000000
H     1.026000000     4.394000000     0.835000000
C     0.463000000     4.436000000    -1.214000000
O     1.788000000     4.269000000    -1.644000000
C    -0.573000000     4.304000000    -2.126000000
C    -0.357000000     4.127000000    -3.664000000
H    -1.179000000     4.547000000    -4.248000000
C     0.005000000     2.689000000    -4.112000000
C    -1.102000000     1.947000000    -4.652000000
H    -2.099000000     2.370000000    -4.750000000
H     0.486000000     4.759000000    -3.952000000
C    -1.915000000     4.282000000    -1.692000000
H    -2.744000000     4.131000000    -2.377000000
C    -2.183000000     4.306000000    -0.333000000
C    -3.659000000     4.124000000     0.201000000
H    -4.398000000     4.526000000    -0.495000000
H    -3.794000000     4.700000000     1.119000000
C    -4.036000000     2.769000000     0.562000000
C    -4.560000000     1.966000000    -0.508000000
H    -4.772000000     2.529000000    -1.413000000
C    -3.832000000     2.235000000     1.831000000
C    -4.115000000     0.850000000     1.999000000
H    -3.804000000     0.407000000     2.942000000
C    -4.609000000     0.081000000     0.935000000
O    -4.644000000    -1.290000000     1.045000000
C    -3.495000000    -1.956000000     0.574000000
C    -2.938000000    -2.985000000     1.651000000
C    -2.213000000    -4.132000000     1.221000000
H    -2.026000000    -4.346000000     0.172000000
C    -2.995000000    -2.656000000     2.961000000
H    -3.658000000    -1.829000000     3.202000000
O    -3.848000000    -2.691000000    -0.631000000
H    -2.707000000    -1.216000000     0.368000000
C    -4.776000000     0.611000000    -0.318000000
C    -5.312000000    -0.236000000    -1.439000000
H    -5.748000000     0.451000000    -2.167000000
H    -6.074000000    -0.927000000    -1.071000000
C    -4.235000000    -0.930000000    -2.265000000
C    -3.668000000    -0.357000000    -3.374000000
H    -4.056000000     0.626000000    -3.630000000
C    -3.624000000    -2.150000000    -1.827000000
C    -2.582000000    -2.737000000    -2.574000000
H    -2.056000000    -3.611000000    -2.199000000
C    -2.226000000    -2.255000000    -3.859000000
O    -1.098000000    -2.819000000    -4.382000000
C     0.120000000    -2.198000000    -3.935000000
C     1.178000000    -3.276000000    -3.578000000
C     0.749000000    -4.435000000    -2.977000000
H    -0.297000000    -4.689000000    -2.821000000
C     2.524000000    -2.979000000    -3.728000000
H     2.815000000    -2.014000000    -4.137000000
O     0.592000000    -1.315000000    -5.010000000
H    -0.170000000    -1.610000000    -3.051000000
C    -2.695000000    -0.985000000    -4.138000000
C    -2.060000000    -0.248000000    -5.327000000
H    -2.849000000     0.414000000    -5.690000000
H    -1.828000000    -0.915000000    -6.160000000
C    -0.907000000     0.629000000    -4.949000000
C     0.356000000    -0.008000000    -4.764000000
C     1.428000000     0.713000000    -4.194000000
H     2.332000000     0.194000000    -3.883000000
C     1.228000000     2.058000000    -3.898000000
O     2.310000000     2.637000000    -3.204000000
C     2.287000000     2.904000000    -1.791000000
H     1.640000000     2.192000000    -1.258000000
C     3.704000000     2.782000000    -1.259000000
C     4.172000000     3.541000000    -0.183000000
H     3.495000000     4.249000000     0.288000000
C     4.553000000     1.751000000    -1.768000000
H     4.361000000     1.269000000    -2.723000000
C     5.739000000     1.491000000    -1.110000000
O     6.486000000     0.449000000    -1.545000000
C     6.023000000     2.168000000     0.047000000
H     6.874000000     1.824000000     0.630000000
C     5.297000000     3.191000000     0.490000000
O     5.716000000     3.748000000     1.715000000
C     4.846000000     4.334000000     2.569000000
C     4.058000000     3.615000000     3.527000000
H     4.011000000     2.530000000     3.581000000
C     4.702000000     5.700000000     2.388000000
H     5.402000000     6.156000000     1.693000000
C     3.814000000     6.365000000     3.223000000
H     3.674000000     7.435000000     3.099000000
C     3.165000000     5.738000000     4.252000000
H     2.567000000     6.348000000     4.924000000
C     3.197000000     4.379000000     4.356000000
O     2.503000000     3.834000000     5.412000000
C     1.265000000     3.230000000     5.240000000
C     0.716000000     2.397000000     6.197000000
H     1.245000000     2.163000000     7.117000000
C    -0.539000000     1.796000000     6.029000000
O    -0.837000000     0.886000000     7.034000000
C    -1.872000000    -0.061000000     7.024000000
C    -1.795000000    -1.111000000     6.152000000
H    -0.828000000    -1.195000000     5.663000000
C    -3.013000000    -0.010000000     7.831000000
H    -2.993000000     0.794000000     8.562000000
C    -4.029000000    -0.945000000     7.763000000
H    -4.888000000    -0.894000000     8.427000000
C    -3.971000000    -1.957000000     6.809000000
H    -4.753000000    -2.709000000     6.743000000
C    -2.822000000    -2.042000000     5.971000000
O    -2.547000000    -3.193000000     5.261000000
C    -2.372000000    -3.392000000     3.921000000
C    -1.647000000    -4.485000000     3.510000000
H    -1.209000000    -5.132000000     4.266000000
C    -1.537000000    -4.830000000     2.195000000
O    -1.000000000    -6.067000000     1.882000000
C    -1.021000000    -6.565000000     0.615000000
C     0.173000000    -6.392000000    -0.101000000
H     1.037000000    -5.906000000     0.345000000
C    -2.118000000    -7.288000000     0.110000000
H    -2.957000000    -7.403000000     0.792000000
C    -2.021000000    -7.894000000    -1.163000000
H    -2.780000000    -8.571000000    -1.547000000
C    -0.857000000    -7.727000000    -1.859000000
H    -0.777000000    -8.122000000    -2.868000000
C     0.192000000    -6.956000000    -1.371000000
O     1.338000000    -6.715000000    -2.138000000
C     1.696000000    -5.438000000    -2.671000000
C     3.061000000    -5.234000000    -2.927000000
H     3.743000000    -6.075000000    -2.825000000
C     3.456000000    -3.965000000    -3.337000000
O     4.816000000    -3.699000000    -3.469000000
C     5.358000000    -2.424000000    -3.643000000
C     5.642000000    -2.009000000    -4.925000000
H     5.519000000    -2.651000000    -5.793000000
C     6.336000000    -0.805000000    -5.006000000
H     6.702000000    -0.490000000    -5.980000000
C     6.569000000     0.030000000    -3.878000000
H     6.958000000     1.031000000    -4.049000000
C     6.204000000    -0.376000000    -2.608000000
C     5.636000000    -1.650000000    -2.477000000
H     5.348000000    -2.030000000    -1.500000000
C     1.351000000    -1.956000000    -0.141000000
H     2.138000000    -2.474000000    -0.684000000
C     0.643000000    -0.959000000    -0.716000000
H     0.778000000    -0.700000000    -1.763000000
C    -0.309000000    -0.240000000     0.016000000
H    -0.797000000     0.583000000    -0.509000000
C    -0.601000000    -0.672000000     1.314000000
H    -1.427000000    -0.198000000     1.838000000
C     0.250000000    -1.582000000     1.923000000
H     0.248000000    -1.720000000     3.001000000
C     1.172000000    -2.260000000     1.213000000
C     1.975000000    -3.324000000     1.879000000
O     1.935000000    -3.434000000     3.081000000
O     2.859000000    -3.986000000     1.318000000
O     4.943000000    -0.015000000     3.210000000
H     4.229000000     0.463000000     2.788000000
H     4.556000000    -0.855000000     3.456000000
O     4.154000000    -5.030000000     3.858000000
H     3.724000000    -5.364000000     4.645000000
H     3.452000000    -4.612000000     3.360000000
O     3.422000000    -2.056000000     4.631000000
H     2.798000000    -2.585000000     4.133000000
H     3.803000000    -2.666000000     5.262000000
O     2.696000000    -7.726000000     4.767000000
H     1.925000000    -7.753000000     4.201000000
H     3.431000000    -7.607000000     4.165000000
O     4.741000000    -8.201000000     2.464000000
H     5.525000000    -7.678000000     2.630000000
H     4.296000000    -7.745000000     1.749000000
O     2.839000000     0.418000000     5.742000000
H     2.976000000    -0.450000000     5.363000000
H     2.010000000     0.716000000     5.366000000
O     6.821000000    -6.343000000     2.535000000
H     6.286000000    -5.809000000     3.122000000
H     6.976000000    -5.783000000     1.775000000
O     3.877000000    -6.060000000     0.231000000
H     3.525000000    -5.313000000     0.714000000
H     4.706000000    -5.744000000    -0.128000000
O     0.688000000    -5.907000000     6.444000000
H     0.813000000    -4.982000000     6.233000000
H     1.279000000    -6.370000000     5.850000000
O     2.720000000     0.983000000     1.770000000
H     2.946000000     1.402000000     0.940000000
H     1.841000000     0.630000000     1.629000000
O     5.048000000    -2.670000000     0.986000000
H     4.169000000    -3.048000000     1.020000000
H     5.590000000    -3.358000000     0.599000000
O     0.616000000    -7.854000000     2.860000000
H    -0.087000000    -8.317000000     3.317000000
H     0.168000000    -7.176000000     2.355000000
O     2.723000000    -8.365000000    -0.171000000
H     1.979000000    -8.278000000    -0.767000000
H     3.138000000    -7.502000000    -0.178000000
O     6.219000000    -3.162000000     3.481000000
H     5.728000000    -2.567000000     2.915000000
H     5.608000000    -3.876000000     3.666000000
O     6.616000000    -4.321000000    -0.538000000
H     6.750000000    -4.644000000    -1.429000000
H     7.485000000    -4.041000000    -0.252000000
O     3.883000000    -3.432000000     7.042000000
H     4.073000000    -3.085000000     7.914000000
H     3.742000000    -4.368000000     7.183000000
O     0.656000000    -3.502000000     5.431000000
H    -0.239000000    -3.299000000     5.159000000
H     1.171000000    -3.443000000     4.627000000
O     7.123000000    -0.711000000     1.547000000
H     6.641000000    -0.261000000     2.240000000
H     6.459000000    -1.225000000     1.088000000
O     3.533000000    -6.180000000     6.873000000
H     3.057000000    -6.405000000     7.673000000
H     3.627000000    -7.012000000     6.408000000
