215
-1431.98936
C    -0.271000000     2.436000000     4.402000000
H    -1.170000000     1.831000000     4.314000000
C     0.031000000     3.376000000     3.407000000
C     1.222000000     4.089000000     3.413000000
H     1.550000000     4.801000000     2.661000000
C    -0.987000000     3.519000000     2.212000000
O    -2.383000000     3.392000000     2.739000000
H    -0.820000000     2.584000000     1.657000000
O    -0.848000000     4.649000000     1.415000000
C    -0.955000000     4.600000000     0.062000000
C     0.216000000     4.613000000    -0.711000000
H     1.189000000     4.649000000    -0.227000000
C     0.042000000     4.345000000    -2.099000000
O     1.263000000     4.223000000    -2.786000000
C    -1.148000000     4.120000000    -2.747000000
C    -1.037000000     3.718000000    -4.249000000
H    -1.909000000     3.955000000    -4.863000000
C    -0.872000000     2.186000000    -4.389000000
C    -1.941000000     1.362000000    -4.624000000
H    -2.920000000     1.828000000    -4.694000000
H    -0.191000000     4.216000000    -4.727000000
C    -2.254000000     4.173000000    -1.982000000
H    -3.252000000     4.104000000    -2.407000000
C    -2.210000000     4.373000000    -0.569000000
C    -3.511000000     4.343000000     0.156000000
H    -4.323000000     4.683000000    -0.489000000
H    -3.515000000     5.065000000     0.976000000
C    -3.816000000     2.979000000     0.775000000
C    -4.678000000     2.098000000     0.121000000
H    -5.168000000     2.281000000    -0.832000000
C    -3.346000000     2.684000000     2.061000000
C    -3.677000000     1.450000000     2.587000000
H    -3.333000000     1.149000000     3.574000000
C    -4.341000000     0.530000000     1.805000000
O    -4.447000000    -0.759000000     2.295000000
C    -3.608000000    -1.776000000     1.769000000
C    -2.870000000    -2.678000000     2.790000000
C    -1.923000000    -3.610000000     2.324000000
H    -1.592000000    -3.646000000     1.289000000
C    -3.013000000    -2.461000000     4.152000000
H    -3.596000000    -1.584000000     4.420000000
O    -4.245000000    -2.526000000     0.642000000
H    -2.800000000    -1.244000000     1.245000000
C    -4.891000000     0.835000000     0.569000000
C    -5.609000000    -0.171000000    -0.287000000
H    -6.141000000     0.428000000    -1.029000000
H    -6.384000000    -0.725000000     0.246000000
C    -4.658000000    -0.999000000    -1.122000000
C    -4.238000000    -0.511000000    -2.390000000
H    -4.733000000     0.368000000    -2.796000000
C    -4.118000000    -2.210000000    -0.686000000
C    -3.186000000    -2.896000000    -1.416000000
H    -2.778000000    -3.818000000    -1.009000000
C    -2.897000000    -2.497000000    -2.677000000
O    -1.855000000    -3.187000000    -3.269000000
C    -0.484000000    -2.542000000    -3.230000000
C     0.601000000    -3.581000000    -2.989000000
C     0.261000000    -4.760000000    -2.408000000
H    -0.788000000    -4.902000000    -2.162000000
C     1.962000000    -3.316000000    -3.219000000
H     2.214000000    -2.315000000    -3.561000000
O    -0.256000000    -1.957000000    -4.534000000
H    -0.455000000    -1.709000000    -2.512000000
C    -3.374000000    -1.295000000    -3.224000000
C    -3.014000000    -0.856000000    -4.637000000
H    -3.831000000    -0.340000000    -5.146000000
H    -2.891000000    -1.769000000    -5.224000000
C    -1.747000000     0.009000000    -4.643000000
C    -0.476000000    -0.597000000    -4.645000000
C     0.638000000     0.200000000    -4.574000000
H     1.598000000    -0.256000000    -4.802000000
C     0.386000000     1.569000000    -4.435000000
O     1.454000000     2.344000000    -4.218000000
C     1.736000000     2.888000000    -2.963000000
H     1.167000000     2.306000000    -2.223000000
C     3.191000000     2.658000000    -2.588000000
C     3.652000000     3.087000000    -1.331000000
H     2.962000000     3.572000000    -0.646000000
C     4.027000000     1.836000000    -3.396000000
H     3.714000000     1.568000000    -4.402000000
C     5.304000000     1.430000000    -2.978000000
O     6.078000000     0.624000000    -3.787000000
C     5.745000000     1.918000000    -1.778000000
H     6.671000000     1.493000000    -1.400000000
C     4.948000000     2.701000000    -0.924000000
O     5.398000000     2.870000000     0.375000000
C     4.938000000     3.903000000     1.255000000
C     4.321000000     3.682000000     2.492000000
H     3.856000000     2.720000000     2.695000000
C     5.449000000     5.259000000     1.117000000
H     5.976000000     5.586000000     0.224000000
C     5.296000000     6.265000000     2.092000000
H     5.590000000     7.295000000     1.908000000
C     4.646000000     5.988000000     3.250000000
H     4.614000000     6.715000000     4.057000000
C     4.113000000     4.695000000     3.488000000
O     3.341000000     4.452000000     4.586000000
C     2.157000000     3.818000000     4.433000000
C     1.842000000     2.830000000     5.338000000
H     2.612000000     2.534000000     6.045000000
C     0.665000000     2.120000000     5.394000000
O     0.468000000     1.175000000     6.388000000
C    -0.677000000     0.564000000     6.658000000
C    -0.827000000    -0.750000000     6.206000000
H    -0.146000000    -1.213000000     5.496000000
C    -1.549000000     1.106000000     7.605000000
H    -1.261000000     2.000000000     8.152000000
C    -2.706000000     0.467000000     7.847000000
H    -3.508000000     0.862000000     8.465000000
C    -2.859000000    -0.861000000     7.350000000
H    -3.699000000    -1.468000000     7.676000000
C    -1.887000000    -1.477000000     6.628000000
O    -2.109000000    -2.844000000     6.263000000
C    -2.170000000    -3.193000000     4.993000000
C    -1.435000000    -4.334000000     4.595000000
H    -0.938000000    -5.026000000     5.270000000
C    -1.266000000    -4.474000000     3.231000000
O    -0.267000000    -5.324000000     2.679000000
C    -0.530000000    -6.227000000     1.661000000
C     0.202000000    -6.113000000     0.520000000
H     1.021000000    -5.398000000     0.535000000
C    -1.628000000    -7.145000000     1.708000000
H    -2.265000000    -7.210000000     2.586000000
C    -1.881000000    -7.986000000     0.616000000
H    -2.681000000    -8.722000000     0.609000000
C    -1.034000000    -7.893000000    -0.497000000
H    -1.315000000    -8.495000000    -1.357000000
C     0.015000000    -6.994000000    -0.574000000
O     0.861000000    -6.984000000    -1.702000000
C     1.237000000    -5.753000000    -2.210000000
C     2.566000000    -5.453000000    -2.410000000
H     3.322000000    -6.150000000    -2.058000000
C     2.902000000    -4.215000000    -2.890000000
O     4.264000000    -3.775000000    -2.911000000
C     4.691000000    -2.769000000    -3.792000000
C     5.113000000    -3.223000000    -4.997000000
H     4.886000000    -4.211000000    -5.391000000
C     5.665000000    -2.340000000    -5.882000000
H     6.067000000    -2.715000000    -6.820000000
C     6.052000000    -1.035000000    -5.495000000
H     6.660000000    -0.417000000    -6.150000000
C     5.666000000    -0.630000000    -4.211000000
C     5.114000000    -1.551000000    -3.284000000
H     4.978000000    -1.244000000    -2.250000000
C     2.136000000    -1.145000000     0.139000000
H     2.968000000    -1.564000000    -0.421000000
C     1.137000000    -0.554000000    -0.658000000
H     1.259000000    -0.560000000    -1.738000000
C    -0.005000000     0.074000000    -0.062000000
H    -0.681000000     0.597000000    -0.756000000
C    -0.247000000    -0.225000000     1.270000000
H    -1.184000000     0.108000000     1.709000000
C     0.683000000    -0.901000000     2.067000000
H     0.476000000    -1.075000000     3.120000000
C     1.926000000    -1.305000000     1.544000000
C     2.996000000    -1.903000000     2.354000000
O     3.005000000    -1.834000000     3.518000000
O     3.933000000    -2.488000000     1.902000000
O     4.882000000    -0.259000000     4.332000000
H     5.750000000    -0.535000000     4.037000000
H     4.282000000    -0.893000000     3.938000000
O     8.954000000    -3.916000000     0.570000000
H     8.253000000    -4.101000000     1.195000000
H     9.737000000    -3.815000000     1.112000000
O     5.042000000    -3.373000000     4.491000000
H     5.774000000    -2.780000000     4.663000000
H     4.434000000    -2.855000000     3.962000000
O     2.451000000    -1.452000000     6.436000000
H     2.670000000    -1.476000000     5.505000000
H     1.804000000    -0.751000000     6.512000000
O     1.685000000    -3.827000000     7.418000000
H     2.054000000    -2.946000000     7.350000000
H     1.707000000    -4.165000000     6.523000000
O     5.974000000     1.957000000     5.827000000
H     6.762000000     2.364000000     5.466000000
H     5.578000000     1.502000000     5.084000000
O     7.767000000     1.533000000     1.967000000
H     6.969000000     1.941000000     1.631000000
H     8.470000000     1.908000000     1.435000000
O     8.285000000    -1.472000000    -1.055000000
H     7.681000000    -1.113000000    -0.405000000
H     8.766000000    -2.153000000    -0.584000000
O     4.332000000    -5.540000000     5.973000000
H     3.376000000    -5.531000000     5.918000000
H     4.597000000    -4.667000000     5.684000000
O     0.339000000    -7.815000000     4.850000000
H     0.762000000    -7.670000000     4.004000000
H     1.051000000    -7.762000000     5.487000000
O     4.438000000    -4.957000000     0.823000000
H     4.477000000    -4.784000000    -0.117000000
H     4.076000000    -4.155000000     1.200000000
O     6.130000000    -1.027000000     1.056000000
H     5.308000000    -1.469000000     1.265000000
H     6.433000000    -0.676000000     1.893000000
O     2.815000000    -6.529000000     2.581000000
H     3.336000000    -6.948000000     3.265000000
H     3.447000000    -6.319000000     1.893000000
O     6.692000000    -4.317000000     2.403000000
H     6.088000000    -4.820000000     1.856000000
H     6.185000000    -4.103000000     3.186000000
O     4.733000000    -1.417000000     7.719000000
H     3.810000000    -1.328000000     7.482000000
H     5.109000000    -0.554000000     7.548000000
O     6.258000000    -7.063000000     0.557000000
H     6.980000000    -6.842000000    -0.032000000
H     5.546000000    -6.482000000     0.291000000
O     1.957000000    -4.570000000     4.601000000
H     1.974000000    -5.235000000     3.913000000
H     2.038000000    -3.739000000     4.133000000
O     7.147000000    -5.219000000    -1.576000000
H     7.355000000    -4.523000000    -0.953000000
H     7.374000000    -4.851000000    -2.431000000
O     7.138000000    -1.651000000     3.659000000
H     7.923000000    -1.855000000     4.167000000
H     7.092000000    -2.345000000     3.001000000
