215
-1432.54296
C    -1.731000000     2.192000000     5.014000000
H    -2.528000000     1.462000000     4.899000000
C    -1.468000000     3.174000000     4.016000000
C    -0.466000000     4.127000000     4.263000000
H    -0.133000000     4.845000000     3.518000000
C    -2.060000000     3.146000000     2.615000000
O    -3.386000000     2.602000000     2.698000000
H    -1.403000000     2.359000000     2.217000000
O    -1.994000000     4.339000000     1.872000000
C    -1.748000000     4.301000000     0.520000000
C    -0.441000000     4.527000000     0.080000000
H     0.310000000     4.886000000     0.779000000
C    -0.104000000     4.365000000    -1.266000000
O     1.234000000     4.408000000    -1.599000000
C    -1.114000000     4.096000000    -2.185000000
C    -0.813000000     3.985000000    -3.640000000
H    -1.689000000     4.356000000    -4.176000000
C    -0.386000000     2.615000000    -4.130000000
C    -1.338000000     1.713000000    -4.617000000
H    -2.401000000     1.929000000    -4.694000000
H    -0.033000000     4.694000000    -3.928000000
C    -2.456000000     3.853000000    -1.749000000
H    -3.301000000     3.459000000    -2.307000000
C    -2.810000000     4.055000000    -0.413000000
C    -4.183000000     3.716000000     0.117000000
H    -4.974000000     4.042000000    -0.562000000
H    -4.429000000     4.251000000     1.037000000
C    -4.172000000     2.246000000     0.376000000
C    -4.676000000     1.388000000    -0.509000000
H    -4.924000000     1.713000000    -1.516000000
C    -3.822000000     1.805000000     1.673000000
C    -3.820000000     0.468000000     1.924000000
H    -3.608000000     0.137000000     2.937000000
C    -4.360000000    -0.449000000     1.050000000
O    -4.297000000    -1.802000000     1.337000000
C    -3.152000000    -2.510000000     0.729000000
C    -2.491000000    -3.401000000     1.782000000
C    -1.886000000    -4.543000000     1.334000000
H    -2.043000000    -4.863000000     0.307000000
C    -2.145000000    -2.864000000     2.973000000
H    -2.591000000    -1.924000000     3.287000000
O    -3.638000000    -3.209000000    -0.401000000
H    -2.486000000    -1.675000000     0.467000000
C    -4.709000000    -0.005000000    -0.227000000
C    -5.218000000    -0.978000000    -1.322000000
H    -6.003000000    -0.504000000    -1.916000000
H    -5.567000000    -1.835000000    -0.742000000
C    -4.136000000    -1.553000000    -2.191000000
C    -3.648000000    -0.878000000    -3.302000000
H    -4.209000000     0.005000000    -3.596000000
C    -3.384000000    -2.589000000    -1.584000000
C    -2.222000000    -3.072000000    -2.247000000
H    -1.715000000    -3.928000000    -1.810000000
C    -1.802000000    -2.419000000    -3.449000000
O    -0.649000000    -2.886000000    -4.172000000
C     0.602000000    -2.168000000    -3.853000000
C     1.839000000    -3.133000000    -3.575000000
C     1.634000000    -4.322000000    -2.877000000
H     0.630000000    -4.493000000    -2.495000000
C     3.125000000    -2.729000000    -3.909000000
H     3.253000000    -1.902000000    -4.603000000
O     0.847000000    -1.244000000    -4.993000000
H     0.482000000    -1.658000000    -2.886000000
C    -2.416000000    -1.201000000    -3.876000000
C    -1.898000000    -0.592000000    -5.236000000
H    -2.770000000    -0.126000000    -5.700000000
H    -1.638000000    -1.342000000    -5.985000000
C    -0.877000000     0.424000000    -4.909000000
C     0.425000000     0.090000000    -4.804000000
C     1.351000000     0.992000000    -4.394000000
H     2.392000000     0.694000000    -4.291000000
C     0.959000000     2.253000000    -3.952000000
O     1.948000000     3.007000000    -3.276000000
C     1.830000000     3.129000000    -1.913000000
H     1.095000000     2.361000000    -1.631000000
C     3.139000000     2.877000000    -1.103000000
C     3.150000000     3.146000000     0.252000000
H     2.286000000     3.601000000     0.730000000
C     4.127000000     2.156000000    -1.776000000
H     4.095000000     2.166000000    -2.862000000
C     5.175000000     1.676000000    -1.011000000
O     6.240000000     1.033000000    -1.668000000
C     5.245000000     2.061000000     0.314000000
H     6.071000000     1.622000000     0.869000000
C     4.240000000     2.839000000     0.944000000
O     4.340000000     3.177000000     2.280000000
C     3.807000000     4.262000000     2.912000000
C     2.978000000     3.985000000     4.034000000
H     2.963000000     2.944000000     4.345000000
C     3.888000000     5.577000000     2.411000000
H     4.456000000     5.757000000     1.502000000
C     3.043000000     6.584000000     2.992000000
H     3.127000000     7.610000000     2.640000000
C     2.197000000     6.306000000     4.073000000
H     1.581000000     7.064000000     4.549000000
C     2.247000000     5.012000000     4.653000000
O     1.324000000     4.776000000     5.669000000
C     0.252000000     4.007000000     5.488000000
C    -0.170000000     3.205000000     6.525000000
H     0.445000000     3.189000000     7.421000000
C    -1.113000000     2.265000000     6.252000000
O    -1.396000000     1.330000000     7.181000000
C    -1.920000000     0.059000000     6.932000000
C    -1.183000000    -0.981000000     6.332000000
H    -0.109000000    -0.893000000     6.185000000
C    -3.300000000    -0.156000000     7.126000000
H    -3.848000000     0.667000000     7.578000000
C    -3.976000000    -1.369000000     6.747000000
H    -4.999000000    -1.576000000     7.050000000
C    -3.208000000    -2.329000000     6.031000000
H    -3.598000000    -3.280000000     5.679000000
C    -1.848000000    -2.123000000     5.832000000
O    -1.091000000    -3.094000000     5.145000000
C    -1.540000000    -3.632000000     3.956000000
C    -1.031000000    -4.883000000     3.604000000
H    -0.425000000    -5.443000000     4.312000000
C    -1.195000000    -5.358000000     2.281000000
O    -0.465000000    -6.460000000     1.985000000
C    -0.150000000    -6.775000000     0.683000000
C     1.074000000    -6.407000000     0.101000000
H     1.847000000    -5.933000000     0.700000000
C    -1.055000000    -7.484000000    -0.058000000
H    -1.973000000    -7.978000000     0.251000000
C    -0.817000000    -7.742000000    -1.440000000
H    -1.513000000    -8.305000000    -2.056000000
C     0.353000000    -7.327000000    -2.081000000
H     0.504000000    -7.442000000    -3.151000000
C     1.298000000    -6.695000000    -1.275000000
O     2.506000000    -6.374000000    -1.816000000
C     2.664000000    -5.201000000    -2.521000000
C     3.971000000    -4.765000000    -2.854000000
H     4.780000000    -5.490000000    -2.810000000
C     4.200000000    -3.569000000    -3.547000000
O     5.502000000    -3.228000000    -3.876000000
C     5.763000000    -1.869000000    -3.929000000
C     6.288000000    -1.242000000    -5.081000000
H     6.434000000    -1.843000000    -5.975000000
C     6.684000000     0.102000000    -5.131000000
H     6.991000000     0.582000000    -6.056000000
C     6.677000000     0.803000000    -3.879000000
H     7.075000000     1.808000000    -3.763000000
C     6.213000000     0.183000000    -2.714000000
C     5.740000000    -1.119000000    -2.745000000
H     5.350000000    -1.524000000    -1.814000000
C     2.130000000    -1.528000000     0.138000000
H     2.935000000    -1.968000000    -0.445000000
C     1.224000000    -0.629000000    -0.355000000
H     1.246000000    -0.375000000    -1.412000000
C     0.188000000    -0.226000000     0.409000000
H    -0.591000000     0.535000000     0.039000000
C     0.030000000    -0.623000000     1.758000000
H    -0.780000000    -0.240000000     2.372000000
C     0.974000000    -1.497000000     2.297000000
H     0.895000000    -1.942000000     3.285000000
C     1.969000000    -2.027000000     1.436000000
C     2.962000000    -3.014000000     2.012000000
O     2.946000000    -3.191000000     3.186000000
O     4.017000000    -3.254000000     1.427000000
O     9.205000000    -1.243000000     2.997000000
H     8.345000000    -0.932000000     3.279000000
H     9.044000000    -2.126000000     2.664000000
O     4.515000000    -5.870000000     1.150000000
H     4.835000000    -6.139000000     2.010000000
H     4.366000000    -4.928000000     1.233000000
O     4.597000000     0.224000000     4.690000000
H     4.072000000     0.312000000     3.895000000
H     4.306000000    -0.601000000     5.080000000
O     6.543000000    -6.462000000     3.862000000
H     6.303000000    -5.544000000     3.735000000
H     6.191000000    -6.685000000     4.723000000
O     6.545000000     1.875000000     5.839000000
H     5.895000000     1.279000000     5.467000000
H     6.451000000     1.772000000     6.786000000
O     5.953000000    -3.947000000     3.182000000
H     6.682000000    -3.376000000     2.939000000
H     5.223000000    -3.646000000     2.641000000
O     5.120000000    -8.122000000    -0.229000000
H     5.476000000    -8.481000000     0.584000000
H     4.966000000    -7.197000000    -0.035000000
O    -0.272000000    -4.540000000     8.078000000
H     0.131000000    -5.301000000     8.495000000
H    -0.157000000    -4.692000000     7.140000000
O     9.186000000    -4.056000000     2.209000000
H     9.570000000    -4.201000000     3.074000000
H     9.031000000    -4.936000000     1.865000000
O     6.640000000    -0.925000000     3.085000000
H     6.206000000    -0.175000000     3.492000000
H     6.272000000    -0.964000000     2.202000000
O     5.954000000    -1.733000000     0.652000000
H     5.187000000    -2.284000000     0.808000000
H     6.536000000    -2.277000000     0.121000000
O     5.872000000    -3.696000000     5.775000000
H     5.791000000    -3.966000000     4.861000000
H     5.125000000    -3.116000000     5.921000000
O     1.405000000    -8.277000000     4.106000000
H     0.663000000    -7.953000000     3.596000000
H     1.967000000    -7.511000000     4.225000000
O     3.533000000    -2.191000000     5.747000000
H     3.005000000    -2.754000000     6.314000000
H     3.403000000    -2.547000000     4.868000000
O     7.705000000    -3.401000000    -1.778000000
H     7.953000000    -2.898000000    -2.553000000
H     8.385000000    -3.201000000    -1.134000000
O     8.654000000    -3.189000000     5.748000000
H     7.718000000    -3.389000000     5.724000000
H     9.037000000    -3.895000000     6.269000000
O     2.755000000    -4.677000000     6.835000000
H     3.105000000    -4.625000000     7.724000000
H     2.221000000    -5.471000000     6.833000000
O     2.778000000    -5.751000000     3.947000000
H     2.446000000    -4.871000000     3.770000000
H     3.631000000    -5.607000000     4.357000000
O     4.143000000     0.029000000     7.485000000
H     3.363000000     0.502000000     7.774000000
H     4.230000000     0.254000000     6.559000000
