215
-1468.83422
C    -0.003000000     2.295000000     4.503000000
H    -0.924000000     1.745000000     4.680000000
C     0.215000000     3.277000000     3.533000000
C     1.430000000     4.019000000     3.529000000
H     1.582000000     4.772000000     2.760000000
C    -0.900000000     3.449000000     2.537000000
O    -2.296000000     3.248000000     3.019000000
H    -0.778000000     2.721000000     1.722000000
O    -0.785000000     4.692000000     1.888000000
C    -0.863000000     4.665000000     0.517000000
C     0.393000000     4.630000000    -0.141000000
H     1.326000000     4.685000000     0.415000000
C     0.443000000     4.256000000    -1.481000000
O     1.656000000     3.990000000    -2.033000000
C    -0.754000000     4.115000000    -2.256000000
C    -0.770000000     3.913000000    -3.762000000
H    -1.615000000     4.365000000    -4.285000000
C    -0.744000000     2.435000000    -4.041000000
C    -1.897000000     1.681000000    -4.181000000
H    -2.912000000     2.068000000    -4.146000000
H     0.009000000     4.488000000    -4.266000000
C    -1.971000000     4.187000000    -1.564000000
H    -2.895000000     4.286000000    -2.129000000
C    -2.066000000     4.448000000    -0.213000000
C    -3.414000000     4.416000000     0.476000000
H    -4.073000000     4.701000000    -0.347000000
H    -3.576000000     5.172000000     1.247000000
C    -3.755000000     3.043000000     1.009000000
C    -4.554000000     2.213000000     0.195000000
H    -4.796000000     2.619000000    -0.784000000
C    -3.206000000     2.533000000     2.236000000
C    -3.491000000     1.254000000     2.633000000
H    -2.889000000     0.776000000     3.402000000
C    -4.345000000     0.445000000     1.841000000
O    -4.467000000    -0.878000000     2.295000000
C    -3.556000000    -1.803000000     1.672000000
C    -2.922000000    -2.740000000     2.605000000
C    -2.185000000    -3.841000000     2.122000000
H    -2.211000000    -4.147000000     1.080000000
C    -2.744000000    -2.358000000     3.967000000
H    -3.321000000    -1.530000000     4.373000000
O    -4.194000000    -2.532000000     0.573000000
H    -2.791000000    -1.218000000     1.141000000
C    -4.845000000     0.866000000     0.628000000
C    -5.540000000    -0.136000000    -0.278000000
H    -6.267000000     0.413000000    -0.880000000
H    -6.155000000    -0.791000000     0.343000000
C    -4.682000000    -0.894000000    -1.223000000
C    -4.441000000    -0.417000000    -2.497000000
H    -4.787000000     0.563000000    -2.815000000
C    -4.143000000    -2.113000000    -0.787000000
C    -3.233000000    -2.803000000    -1.559000000
H    -2.922000000    -3.764000000    -1.155000000
C    -2.945000000    -2.289000000    -2.836000000
O    -2.072000000    -3.058000000    -3.563000000
C    -0.725000000    -2.526000000    -3.680000000
C     0.308000000    -3.653000000    -3.688000000
C     0.160000000    -4.809000000    -2.902000000
H    -0.700000000    -4.805000000    -2.238000000
C     1.577000000    -3.508000000    -4.226000000
H     1.846000000    -2.514000000    -4.576000000
O    -0.572000000    -1.640000000    -4.768000000
H    -0.482000000    -1.923000000    -2.793000000
C    -3.633000000    -1.126000000    -3.354000000
C    -3.172000000    -0.417000000    -4.645000000
H    -3.989000000     0.158000000    -5.086000000
H    -3.064000000    -1.152000000    -5.446000000
C    -1.884000000     0.380000000    -4.503000000
C    -0.621000000    -0.238000000    -4.597000000
C     0.543000000     0.428000000    -4.291000000
H     1.523000000    -0.040000000    -4.251000000
C     0.473000000     1.779000000    -4.024000000
O     1.659000000     2.328000000    -3.698000000
C     1.877000000     2.618000000    -2.321000000
H     1.101000000     1.960000000    -1.903000000
C     3.274000000     2.092000000    -1.836000000
C     3.861000000     2.644000000    -0.653000000
H     3.486000000     3.557000000    -0.197000000
C     3.935000000     1.065000000    -2.511000000
H     3.545000000     0.671000000    -3.447000000
C     5.142000000     0.524000000    -1.979000000
O     5.839000000    -0.451000000    -2.627000000
C     5.783000000     1.202000000    -0.950000000
H     6.843000000     1.024000000    -0.787000000
C     5.159000000     2.209000000    -0.197000000
O     5.845000000     2.945000000     0.769000000
C     5.359000000     3.942000000     1.535000000
C     4.694000000     3.621000000     2.717000000
H     4.511000000     2.586000000     2.994000000
C     5.631000000     5.247000000     1.130000000
H     6.098000000     5.359000000     0.155000000
C     5.060000000     6.313000000     1.871000000
H     5.155000000     7.369000000     1.632000000
C     4.389000000     5.963000000     3.066000000
H     4.109000000     6.737000000     3.775000000
C     4.284000000     4.665000000     3.554000000
O     3.521000000     4.456000000     4.699000000
C     2.384000000     3.783000000     4.570000000
C     2.123000000     2.779000000     5.530000000
H     2.890000000     2.616000000     6.282000000
C     0.948000000     2.084000000     5.556000000
O     0.641000000     1.261000000     6.629000000
C    -0.570000000     0.556000000     6.717000000
C    -0.661000000    -0.756000000     6.329000000
H     0.219000000    -1.177000000     5.849000000
C    -1.643000000     1.122000000     7.455000000
H    -1.569000000     2.085000000     7.954000000
C    -2.859000000     0.365000000     7.549000000
H    -3.663000000     0.859000000     8.089000000
C    -2.943000000    -0.946000000     7.014000000
H    -3.819000000    -1.569000000     7.171000000
C    -1.844000000    -1.497000000     6.457000000
O    -1.889000000    -2.793000000     6.114000000
C    -1.897000000    -3.104000000     4.774000000
C    -1.149000000    -4.211000000     4.310000000
H    -0.569000000    -4.755000000     5.052000000
C    -1.374000000    -4.570000000     2.979000000
O    -0.582000000    -5.642000000     2.585000000
C    -0.716000000    -6.239000000     1.351000000
C     0.215000000    -6.269000000     0.329000000
H     1.073000000    -5.644000000     0.564000000
C    -1.860000000    -7.015000000     1.167000000
H    -2.664000000    -7.076000000     1.896000000
C    -2.162000000    -7.662000000    -0.044000000
H    -3.145000000    -8.113000000    -0.162000000
C    -1.245000000    -7.536000000    -1.096000000
H    -1.402000000    -7.967000000    -2.081000000
C    -0.073000000    -6.784000000    -0.933000000
O     0.932000000    -6.859000000    -1.917000000
C     1.136000000    -5.747000000    -2.767000000
C     2.351000000    -5.616000000    -3.455000000
H     3.148000000    -6.344000000    -3.327000000
C     2.598000000    -4.475000000    -4.181000000
O     3.867000000    -4.301000000    -4.690000000
C     4.304000000    -3.009000000    -4.772000000
C     4.789000000    -2.628000000    -6.013000000
H     4.643000000    -3.366000000    -6.798000000
C     5.500000000    -1.394000000    -6.166000000
H     5.947000000    -1.224000000    -7.143000000
C     5.808000000    -0.635000000    -5.009000000
H     6.467000000     0.228000000    -5.068000000
C     5.348000000    -1.078000000    -3.756000000
C     4.611000000    -2.262000000    -3.662000000
H     4.321000000    -2.673000000    -2.699000000
C     2.221000000    -1.281000000     0.502000000
H     3.021000000    -1.887000000     0.086000000
C     1.364000000    -0.644000000    -0.334000000
H     1.490000000    -0.783000000    -1.405000000
C     0.215000000    -0.094000000     0.238000000
H    -0.576000000     0.254000000    -0.348000000
C     0.101000000    -0.046000000     1.654000000
H    -0.751000000     0.397000000     2.163000000
C     1.077000000    -0.568000000     2.494000000
H     0.864000000    -0.508000000     3.559000000
C     2.127000000    -1.202000000     1.882000000
C     3.200000000    -1.765000000     2.684000000
O     3.390000000    -1.461000000     3.892000000
O     3.876000000    -2.685000000     2.259000000
O     6.538000000    -0.418000000     4.043000000
H     6.614000000    -0.681000000     3.125000000
H     5.599000000    -0.284000000     4.176000000
O     5.303000000    -2.908000000     5.450000000
H     5.793000000    -2.120000000     5.685000000
H     4.655000000    -2.605000000     4.813000000
O     3.312000000    -0.149000000     6.070000000
H     3.183000000    -0.520000000     5.197000000
H     2.442000000    -0.165000000     6.468000000
O     2.136000000    -3.209000000     8.058000000
H     1.864000000    -2.329000000     8.320000000
H     2.183000000    -3.171000000     7.103000000
O     7.187000000     1.472000000     6.058000000
H     7.099000000     0.662000000     5.555000000
H     7.983000000     1.881000000     5.717000000
O     7.883000000     1.264000000     2.292000000
H     7.010000000     1.581000000     2.061000000
H     8.097000000     0.630000000     1.608000000
O     5.324000000    -5.559000000     5.820000000
H     4.459000000    -5.961000000     5.905000000
H     5.160000000    -4.619000000     5.897000000
O     2.783000000    -6.728000000     5.663000000
H     3.279000000    -7.441000000     5.259000000
H     2.552000000    -6.153000000     4.933000000
O     3.648000000    -4.731000000     0.605000000
H     4.414000000    -4.832000000     0.040000000
H     3.810000000    -3.918000000     1.085000000
O     8.478000000    -0.679000000     0.119000000
H     7.527000000    -0.760000000     0.047000000
H     8.731000000    -1.366000000     0.735000000
O     6.228000000    -1.940000000     1.300000000
H     5.288000000    -2.087000000     1.400000000
H     6.636000000    -2.678000000     1.752000000
O     2.659000000    -5.134000000     3.364000000
H     3.354000000    -4.490000000     3.505000000
H     2.558000000    -5.173000000     2.413000000
O     6.443000000    -5.879000000     3.325000000
H     6.040000000    -5.735000000     4.181000000
H     6.686000000    -5.003000000     3.025000000
O     4.147000000    -7.644000000    -0.396000000
H     3.903000000    -6.722000000    -0.311000000
H     3.544000000    -8.106000000     0.186000000
O     5.895000000    -0.741000000     7.008000000
H     4.998000000    -0.685000000     6.679000000
H     6.072000000     0.126000000     7.372000000
O     0.798000000    -5.626000000     7.465000000
H     1.591000000    -6.075000000     7.174000000
H     1.077000000    -4.723000000     7.619000000
O     1.814000000    -3.129000000     5.296000000
H     1.748000000    -3.833000000     4.650000000
H     2.308000000    -2.441000000     4.851000000
O     5.772000000    -4.823000000    -1.168000000
H     6.453000000    -4.313000000    -1.606000000
H     6.116000000    -5.717000000    -1.153000000
O     7.673000000    -3.435000000     3.005000000
H     7.488000000    -3.560000000     3.936000000
H     8.328000000    -2.736000000     2.983000000
