215
-1447.50119
C     0.840000000     1.760000000     5.106000000
H    -0.095000000     1.451000000     5.567000000
C     0.920000000     2.504000000     3.939000000
C     2.131000000     2.849000000     3.411000000
H     2.191000000     3.425000000     2.491000000
C    -0.204000000     2.856000000     3.110000000
O    -1.385000000     2.769000000     3.874000000
H    -0.175000000     2.144000000     2.271000000
O    -0.123000000     4.164000000     2.538000000
C    -0.561000000     4.321000000     1.267000000
C     0.410000000     4.275000000     0.277000000
H     1.471000000     4.130000000     0.463000000
C     0.004000000     4.313000000    -1.079000000
O     1.071000000     4.310000000    -1.996000000
C    -1.340000000     4.473000000    -1.478000000
C    -1.697000000     4.455000000    -2.961000000
H    -2.699000000     4.837000000    -3.164000000
C    -1.667000000     3.047000000    -3.520000000
C    -2.850000000     2.312000000    -3.484000000
H    -3.811000000     2.758000000    -3.242000000
H    -1.144000000     5.186000000    -3.555000000
C    -2.319000000     4.587000000    -0.454000000
H    -3.363000000     4.772000000    -0.695000000
C    -1.900000000     4.483000000     0.915000000
C    -3.031000000     4.307000000     1.958000000
H    -4.004000000     4.675000000     1.624000000
H    -2.871000000     4.801000000     2.919000000
C    -3.251000000     2.821000000     2.380000000
C    -4.316000000     2.044000000     1.790000000
H    -4.867000000     2.515000000     0.979000000
C    -2.428000000     2.130000000     3.255000000
C    -2.571000000     0.793000000     3.541000000
H    -1.889000000     0.321000000     4.244000000
C    -3.538000000     0.078000000     2.940000000
O    -3.498000000    -1.281000000     3.124000000
C    -2.840000000    -2.065000000     2.164000000
C    -1.813000000    -3.124000000     2.727000000
C    -1.338000000    -4.164000000     1.923000000
H    -1.706000000    -4.339000000     0.915000000
C    -1.349000000    -3.039000000     4.038000000
H    -1.774000000    -2.231000000     4.629000000
O    -3.827000000    -2.624000000     1.295000000
H    -2.260000000    -1.322000000     1.598000000
C    -4.433000000     0.702000000     2.055000000
C    -5.397000000    -0.158000000     1.235000000
H    -6.294000000     0.421000000     1.004000000
H    -5.810000000    -0.929000000     1.889000000
C    -4.725000000    -0.732000000    -0.043000000
C    -4.807000000    -0.014000000    -1.254000000
H    -5.182000000     1.002000000    -1.350000000
C    -4.090000000    -2.012000000     0.028000000
C    -3.492000000    -2.564000000    -1.095000000
H    -2.904000000    -3.456000000    -0.896000000
C    -3.633000000    -1.880000000    -2.317000000
O    -2.985000000    -2.426000000    -3.347000000
C    -1.703000000    -1.944000000    -3.660000000
C    -0.677000000    -3.080000000    -3.955000000
C    -0.936000000    -4.372000000    -3.556000000
H    -1.820000000    -4.650000000    -2.988000000
C     0.561000000    -2.721000000    -4.495000000
H     0.733000000    -1.691000000    -4.796000000
O    -1.700000000    -0.983000000    -4.762000000
H    -1.384000000    -1.367000000    -2.780000000
C    -4.131000000    -0.585000000    -2.333000000
C    -4.152000000     0.188000000    -3.706000000
H    -4.986000000     0.881000000    -3.837000000
H    -4.237000000    -0.477000000    -4.568000000
C    -2.900000000     0.970000000    -3.909000000
C    -1.763000000     0.364000000    -4.430000000
C    -0.575000000     1.149000000    -4.514000000
H     0.298000000     0.648000000    -4.925000000
C    -0.507000000     2.457000000    -3.991000000
O     0.693000000     3.037000000    -3.945000000
C     1.362000000     3.089000000    -2.601000000
H     1.019000000     2.215000000    -2.028000000
C     2.863000000     2.887000000    -2.784000000
C     3.815000000     3.614000000    -2.018000000
H     3.456000000     4.458000000    -1.435000000
C     3.319000000     1.769000000    -3.446000000
H     2.746000000     1.217000000    -4.187000000
C     4.730000000     1.463000000    -3.438000000
O     5.278000000     0.479000000    -4.270000000
C     5.567000000     2.180000000    -2.661000000
H     6.625000000     1.932000000    -2.703000000
C     5.142000000     3.248000000    -1.931000000
O     5.995000000     4.025000000    -1.088000000
C     5.569000000     4.347000000     0.197000000
C     5.320000000     3.324000000     1.206000000
H     5.335000000     2.258000000     0.994000000
C     5.465000000     5.663000000     0.608000000
H     5.636000000     6.461000000    -0.110000000
C     4.993000000     6.011000000     1.867000000
H     4.945000000     7.052000000     2.176000000
C     4.551000000     5.035000000     2.766000000
H     4.204000000     5.320000000     3.756000000
C     4.763000000     3.697000000     2.447000000
O     4.567000000     2.758000000     3.425000000
C     3.315000000     2.563000000     4.035000000
C     3.280000000     1.737000000     5.190000000
H     4.196000000     1.293000000     5.570000000
C     2.029000000     1.315000000     5.656000000
O     1.933000000     0.556000000     6.777000000
C     1.105000000    -0.533000000     7.084000000
C     0.915000000    -1.592000000     6.181000000
H     1.454000000    -1.561000000     5.237000000
C     0.338000000    -0.563000000     8.288000000
H     0.472000000     0.288000000     8.950000000
C    -0.524000000    -1.636000000     8.620000000
H    -1.102000000    -1.761000000     9.532000000
C    -0.491000000    -2.719000000     7.737000000
H    -1.069000000    -3.583000000     8.055000000
C     0.183000000    -2.684000000     6.538000000
O     0.246000000    -3.796000000     5.794000000
C    -0.265000000    -3.846000000     4.498000000
C     0.203000000    -4.826000000     3.621000000
H     0.930000000    -5.541000000     3.997000000
C    -0.382000000    -5.056000000     2.350000000
O     0.191000000    -6.029000000     1.546000000
C    -0.476000000    -6.555000000     0.453000000
C     0.064000000    -6.437000000    -0.786000000
H     1.033000000    -5.967000000    -0.935000000
C    -1.800000000    -7.028000000     0.578000000
H    -2.262000000    -6.965000000     1.560000000
C    -2.528000000    -7.382000000    -0.574000000
H    -3.586000000    -7.603000000    -0.461000000
C    -1.976000000    -7.210000000    -1.883000000
H    -2.481000000    -7.438000000    -2.818000000
C    -0.649000000    -6.783000000    -1.920000000
O    -0.039000000    -6.611000000    -3.150000000
C     0.010000000    -5.402000000    -3.769000000
C     1.212000000    -5.001000000    -4.230000000
H     2.005000000    -5.738000000    -4.134000000
C     1.490000000    -3.735000000    -4.643000000
O     2.802000000    -3.591000000    -5.094000000
C     3.325000000    -2.383000000    -5.521000000
C     2.746000000    -1.730000000    -6.606000000
H     2.086000000    -2.313000000    -7.243000000
C     3.059000000    -0.438000000    -6.984000000
H     2.560000000    -0.026000000    -7.857000000
C     3.959000000     0.281000000    -6.249000000
H     4.293000000     1.284000000    -6.501000000
C     4.506000000    -0.323000000    -5.079000000
C     4.229000000    -1.628000000    -4.744000000
H     4.639000000    -2.060000000    -3.835000000
C     2.192000000    -1.631000000    -0.865000000
H     2.595000000    -2.151000000    -1.730000000
C     1.080000000    -0.746000000    -1.006000000
H     0.624000000    -0.744000000    -1.993000000
C     0.519000000    -0.158000000     0.081000000
H    -0.292000000     0.465000000    -0.141000000
C     0.947000000    -0.453000000     1.371000000
H     0.474000000     0.012000000     2.233000000
C     1.988000000    -1.421000000     1.556000000
H     2.367000000    -1.479000000     2.573000000
C     2.682000000    -1.915000000     0.459000000
C     3.749000000    -2.921000000     0.694000000
O     4.273000000    -3.058000000     1.793000000
O     4.312000000    -3.354000000    -0.311000000
O     3.294000000    -8.543000000    -1.719000000
H     3.262000000    -7.587000000    -1.753000000
H     4.228000000    -8.752000000    -1.719000000
O     8.466000000    -6.623000000     3.114000000
H     7.939000000    -7.082000000     2.459000000
H     8.059000000    -5.759000000     3.185000000
O     5.480000000    -0.880000000    -1.009000000
H     5.828000000    -0.674000000    -0.141000000
H     5.072000000    -1.740000000    -0.905000000
O     2.669000000    -7.324000000     4.520000000
H     2.641000000    -6.369000000     4.585000000
H     1.966000000    -7.623000000     5.096000000
O     6.650000000    -0.802000000     1.636000000
H     5.970000000    -0.987000000     2.284000000
H     7.468000000    -0.828000000     2.133000000
O     7.731000000    -1.386000000    -3.520000000
H     8.024000000    -1.217000000    -2.624000000
H     6.777000000    -1.325000000    -3.476000000
O     9.051000000    -2.069000000    -0.098000000
H     8.119000000    -1.871000000    -0.001000000
H     9.438000000    -1.820000000     0.741000000
O     3.527000000    -5.760000000    -0.964000000
H     3.395000000    -6.110000000    -0.083000000
H     3.877000000    -4.880000000    -0.822000000
O     3.187000000    -4.508000000     4.233000000
H     3.222000000    -4.005000000     3.420000000
H     3.421000000    -3.878000000     4.915000000
O     9.281000000    -0.889000000     2.408000000
H     9.853000000    -1.283000000     3.066000000
H     9.795000000    -0.168000000     2.043000000
O     6.483000000    -8.164000000     2.087000000
H     6.129000000    -9.053000000     2.103000000
H     5.734000000    -7.612000000     1.861000000
O     4.098000000    -2.738000000     6.059000000
H     3.925000000    -2.119000000     6.768000000
H     4.331000000    -3.553000000     6.504000000
O     6.461000000     0.718000000     4.082000000
H     6.086000000    -0.151000000     3.938000000
H     5.735000000     1.322000000     3.922000000
O     8.114000000    -3.349000000     4.427000000
H     8.967000000    -3.096000000     4.074000000
H     7.607000000    -3.618000000     3.660000000
O     6.973000000    -4.028000000    -0.948000000
H     6.972000000    -3.995000000    -1.905000000
H     6.049000000    -3.976000000    -0.706000000
O     3.742000000    -6.332000000     1.962000000
H     4.064000000    -5.492000000     2.291000000
H     3.383000000    -6.769000000     2.733000000
O     5.276000000    -1.644000000     3.993000000
H     4.898000000    -2.123000000     4.730000000
H     5.014000000    -2.148000000     3.221000000
O     5.803000000    -5.725000000    -3.048000000
H     5.980000000    -6.661000000    -2.961000000
H     4.976000000    -5.594000000    -2.585000000
O     7.020000000    -4.040000000     2.167000000
H     6.150000000    -3.895000000     1.795000000
H     7.609000000    -4.019000000     1.413000000
