215
-1433.88129
C    -0.158000000     1.253000000     5.081000000
H    -1.140000000     0.883000000     5.364000000
C     0.119000000     2.069000000     3.999000000
C     1.454000000     2.327000000     3.672000000
H     1.669000000     2.997000000     2.844000000
C    -0.953000000     2.707000000     3.087000000
O    -2.272000000     2.546000000     3.593000000
H    -0.825000000     2.178000000     2.131000000
O    -0.649000000     4.119000000     2.589000000
C    -0.801000000     4.276000000     1.199000000
C     0.309000000     4.271000000     0.423000000
H     1.271000000     4.413000000     0.907000000
C     0.244000000     4.402000000    -0.970000000
O     1.431000000     4.332000000    -1.651000000
C    -0.966000000     4.419000000    -1.577000000
C    -1.016000000     4.546000000    -3.118000000
H    -1.936000000     5.014000000    -3.476000000
C    -0.886000000     3.193000000    -3.795000000
C    -2.052000000     2.463000000    -4.012000000
H    -3.039000000     2.870000000    -3.804000000
H    -0.210000000     5.195000000    -3.465000000
C    -2.147000000     4.433000000    -0.834000000
H    -3.063000000     4.425000000    -1.420000000
C    -2.096000000     4.388000000     0.552000000
C    -3.317000000     4.305000000     1.372000000
H    -4.120000000     4.890000000     0.919000000
H    -3.077000000     4.763000000     2.333000000
C    -3.754000000     2.848000000     1.657000000
C    -4.593000000     2.174000000     0.773000000
H    -4.997000000     2.673000000    -0.104000000
C    -3.250000000     2.086000000     2.720000000
C    -3.619000000     0.781000000     2.934000000
H    -3.134000000     0.204000000     3.716000000
C    -4.380000000     0.183000000     1.993000000
O    -4.459000000    -1.150000000     2.151000000
C    -3.531000000    -1.947000000     1.446000000
C    -2.780000000    -2.933000000     2.243000000
C    -1.860000000    -3.797000000     1.576000000
H    -1.656000000    -3.543000000     0.539000000
C    -2.832000000    -2.904000000     3.611000000
H    -3.577000000    -2.268000000     4.083000000
O    -4.204000000    -2.467000000     0.356000000
H    -2.743000000    -1.277000000     1.071000000
C    -4.898000000     0.867000000     0.832000000
C    -5.647000000     0.111000000    -0.192000000
H    -6.338000000     0.810000000    -0.669000000
H    -6.266000000    -0.628000000     0.320000000
C    -4.654000000    -0.588000000    -1.179000000
C    -4.440000000     0.023000000    -2.430000000
H    -4.946000000     0.969000000    -2.606000000
C    -4.007000000    -1.728000000    -0.851000000
C    -3.339000000    -2.448000000    -1.810000000
H    -3.002000000    -3.441000000    -1.521000000
C    -3.029000000    -1.837000000    -3.043000000
O    -2.131000000    -2.454000000    -3.929000000
C    -0.818000000    -1.852000000    -3.962000000
C     0.225000000    -2.932000000    -4.081000000
C     0.043000000    -4.295000000    -3.662000000
H    -0.992000000    -4.582000000    -3.496000000
C     1.549000000    -2.529000000    -4.206000000
H     1.766000000    -1.475000000    -4.357000000
O    -0.676000000    -0.847000000    -5.094000000
H    -0.620000000    -1.254000000    -3.060000000
C    -3.599000000    -0.577000000    -3.346000000
C    -3.242000000     0.216000000    -4.602000000
H    -3.999000000     0.943000000    -4.906000000
H    -3.205000000    -0.500000000    -5.426000000
C    -1.987000000     1.128000000    -4.532000000
C    -0.757000000     0.494000000    -4.706000000
C     0.382000000     1.228000000    -4.410000000
H     1.325000000     0.726000000    -4.610000000
C     0.328000000     2.557000000    -3.924000000
O     1.486000000     3.186000000    -3.595000000
C     1.874000000     3.141000000    -2.240000000
H     1.388000000     2.263000000    -1.790000000
C     3.366000000     2.911000000    -2.151000000
C     4.082000000     3.536000000    -1.113000000
H     3.635000000     4.362000000    -0.566000000
C     4.024000000     2.063000000    -3.030000000
H     3.483000000     1.650000000    -3.878000000
C     5.411000000     1.975000000    -2.989000000
O     6.049000000     1.227000000    -3.989000000
C     6.115000000     2.466000000    -1.860000000
H     7.138000000     2.130000000    -1.709000000
C     5.441000000     3.276000000    -0.857000000
O     6.135000000     3.845000000     0.233000000
C     5.518000000     4.009000000     1.419000000
C     5.038000000     2.942000000     2.100000000
H     5.347000000     1.999000000     1.656000000
C     5.481000000     5.263000000     2.027000000
H     6.014000000     6.146000000     1.683000000
C     4.742000000     5.467000000     3.195000000
H     4.586000000     6.428000000     3.679000000
C     4.087000000     4.374000000     3.743000000
H     3.507000000     4.478000000     4.656000000
C     4.303000000     3.104000000     3.294000000
O     3.848000000     2.078000000     4.075000000
C     2.500000000     1.847000000     4.426000000
C     2.237000000     1.067000000     5.533000000
H     3.081000000     0.723000000     6.126000000
C     0.943000000     0.861000000     5.912000000
O     0.644000000     0.086000000     7.045000000
C    -0.268000000    -0.930000000     7.244000000
C    -0.781000000    -1.831000000     6.299000000
H    -0.262000000    -1.920000000     5.348000000
C    -0.854000000    -0.939000000     8.539000000
H    -0.498000000    -0.208000000     9.261000000
C    -1.850000000    -1.795000000     8.882000000
H    -2.290000000    -1.768000000     9.876000000
C    -2.325000000    -2.724000000     7.959000000
H    -3.099000000    -3.446000000     8.210000000
C    -1.765000000    -2.767000000     6.654000000
O    -2.091000000    -3.745000000     5.718000000
C    -2.023000000    -3.797000000     4.384000000
C    -1.200000000    -4.705000000     3.724000000
H    -0.524000000    -5.267000000     4.364000000
C    -1.142000000    -4.721000000     2.347000000
O    -0.295000000    -5.652000000     1.705000000
C    -0.573000000    -6.143000000     0.503000000
C     0.249000000    -5.937000000    -0.620000000
H     1.123000000    -5.300000000    -0.512000000
C    -1.694000000    -6.959000000     0.330000000
H    -2.369000000    -7.052000000     1.177000000
C    -1.940000000    -7.716000000    -0.798000000
H    -2.802000000    -8.373000000    -0.879000000
C    -1.008000000    -7.620000000    -1.840000000
H    -1.176000000    -8.158000000    -2.769000000
C     0.006000000    -6.606000000    -1.783000000
O     0.859000000    -6.437000000    -2.855000000
C     1.095000000    -5.204000000    -3.409000000
C     2.393000000    -4.782000000    -3.636000000
H     3.207000000    -5.459000000    -3.387000000
C     2.641000000    -3.423000000    -4.036000000
O     3.968000000    -3.025000000    -3.979000000
C     4.402000000    -1.982000000    -4.744000000
C     4.061000000    -1.781000000    -6.124000000
H     3.458000000    -2.511000000    -6.658000000
C     4.408000000    -0.540000000    -6.733000000
H     4.242000000    -0.376000000    -7.795000000
C     4.948000000     0.484000000    -6.004000000
H     5.114000000     1.482000000    -6.400000000
C     5.348000000     0.232000000    -4.715000000
C     5.031000000    -0.912000000    -4.076000000
H     5.384000000    -1.050000000    -3.057000000
C     2.023000000    -2.527000000     0.053000000
H     2.581000000    -3.075000000    -0.702000000
C     1.134000000    -1.664000000    -0.592000000
H     1.059000000    -1.716000000    -1.675000000
C     0.289000000    -0.940000000     0.178000000
H    -0.476000000    -0.287000000    -0.256000000
C     0.424000000    -0.938000000     1.601000000
H    -0.293000000    -0.358000000     2.176000000
C     1.298000000    -1.782000000     2.206000000
H     1.331000000    -1.745000000     3.292000000
C     2.159000000    -2.544000000     1.452000000
C     3.123000000    -3.457000000     2.130000000
O     3.223000000    -3.363000000     3.347000000
O     3.666000000    -4.337000000     1.478000000
O     6.515000000     0.649000000     3.286000000
H     7.451000000     0.749000000     3.112000000
H     6.421000000     0.849000000     4.217000000
O     5.843000000    -4.104000000    -0.430000000
H     5.852000000    -4.830000000    -1.054000000
H     5.015000000    -4.203000000     0.040000000
O     5.639000000    -4.807000000     3.980000000
H     5.635000000    -5.447000000     3.269000000
H     5.273000000    -4.013000000     3.591000000
O     2.860000000    -2.364000000     6.539000000
H     3.010000000    -2.986000000     5.827000000
H     3.172000000    -1.527000000     6.194000000
O     0.538000000    -8.917000000     2.859000000
H     1.318000000    -8.383000000     2.709000000
H    -0.131000000    -8.290000000     3.135000000
O     5.514000000    -1.918000000     3.466000000
H     4.581000000    -2.132000000     3.468000000
H     5.546000000    -0.988000000     3.240000000
O     0.688000000    -6.599000000     6.503000000
H     1.159000000    -6.864000000     7.293000000
H     1.348000000    -6.158000000     5.968000000
O     7.544000000    -2.521000000    -1.907000000
H     6.863000000    -2.939000000    -1.379000000
H     8.006000000    -1.950000000    -1.293000000
O     7.374000000    -3.697000000     5.751000000
H     6.724000000    -3.953000000     5.097000000
H     8.163000000    -3.509000000     5.243000000
O     3.439000000    -6.533000000    -0.020000000
H     2.927000000    -7.018000000     0.627000000
H     3.618000000    -5.691000000     0.399000000
O     8.709000000    -1.007000000     0.234000000
H     8.280000000    -1.537000000     0.905000000
H     9.579000000    -1.396000000     0.141000000
O     7.295000000    -2.937000000     1.883000000
H     6.640000000    -2.489000000     2.417000000
H     6.784000000    -3.455000000     1.261000000
O     2.812000000    -7.290000000     2.748000000
H     2.695000000    -6.340000000     2.711000000
H     3.760000000    -7.412000000     2.802000000
O     2.500000000    -8.546000000     5.437000000
H     2.217000000    -7.924000000     4.766000000
H     2.964000000    -8.010000000     6.080000000
O     5.715000000    -7.927000000     2.728000000
H     5.984000000    -7.866000000     3.645000000
H     6.534000000    -7.891000000     2.235000000
O     5.677000000    -6.861000000    -1.648000000
H     4.885000000    -6.736000000    -1.125000000
H     5.697000000    -7.801000000    -1.832000000
O     2.214000000    -5.186000000     4.877000000
H     2.950000000    -5.195000000     5.489000000
H     2.371000000    -4.419000000     4.326000000
O     3.051000000    -9.409000000    -0.875000000
H     3.974000000    -9.629000000    -0.999000000
H     3.063000000    -8.537000000    -0.481000000
O     9.095000000    -3.688000000     3.728000000
H     8.492000000    -3.405000000     3.041000000
H     9.938000000    -3.780000000     3.284000000
