215
-1461.62174
C    -1.869000000    -2.874000000    -3.896000000
H    -1.725000000    -1.995000000    -4.521000000
C    -2.762000000    -2.739000000    -2.866000000
C    -2.944000000    -3.793000000    -1.998000000
H    -3.607000000    -3.675000000    -1.145000000
C    -3.234000000    -1.323000000    -2.478000000
O    -3.441000000    -0.497000000    -3.588000000
H    -2.496000000    -0.781000000    -1.868000000
O    -4.423000000    -1.319000000    -1.602000000
C    -4.507000000    -0.519000000    -0.499000000
C    -4.390000000    -1.114000000     0.753000000
H    -4.262000000    -2.186000000     0.875000000
C    -4.330000000    -0.280000000     1.867000000
O    -4.013000000    -0.891000000     3.054000000
C    -4.508000000     1.117000000     1.784000000
C    -4.293000000     2.027000000     3.044000000
H    -4.950000000     2.868000000     2.813000000
C    -2.815000000     2.381000000     3.331000000
C    -2.298000000     3.505000000     2.732000000
H    -2.902000000     4.178000000     2.130000000
H    -4.720000000     1.604000000     3.955000000
C    -4.689000000     1.642000000     0.536000000
H    -4.920000000     2.704000000     0.503000000
C    -4.667000000     0.870000000    -0.623000000
C    -4.886000000     1.543000000    -2.004000000
H    -5.459000000     2.463000000    -1.870000000
H    -5.469000000     0.945000000    -2.708000000
C    -3.584000000     1.812000000    -2.721000000
C    -3.049000000     3.060000000    -2.588000000
H    -3.499000000     3.778000000    -1.907000000
C    -2.930000000     0.797000000    -3.534000000
C    -1.660000000     1.033000000    -4.000000000
H    -1.180000000     0.249000000    -4.581000000
C    -1.104000000     2.334000000    -3.866000000
O     0.118000000     2.592000000    -4.324000000
C     1.203000000     2.396000000    -3.358000000
C     2.354000000     1.582000000    -3.968000000
C     3.543000000     1.483000000    -3.230000000
H     3.641000000     2.062000000    -2.316000000
C     2.242000000     0.813000000    -5.085000000
H     1.360000000     0.909000000    -5.713000000
O     1.618000000     3.671000000    -2.918000000
H     0.810000000     1.809000000    -2.514000000
C    -1.776000000     3.348000000    -3.168000000
C    -1.151000000     4.691000000    -2.846000000
H    -1.997000000     5.378000000    -2.785000000
H    -0.469000000     4.988000000    -3.645000000
C    -0.245000000     4.586000000    -1.615000000
C    -0.724000000     5.049000000    -0.374000000
H    -1.674000000     5.520000000    -0.132000000
C     1.057000000     4.085000000    -1.755000000
C     1.854000000     4.009000000    -0.669000000
H     2.914000000     3.781000000    -0.750000000
C     1.383000000     4.373000000     0.586000000
O     2.209000000     4.114000000     1.659000000
C     1.993000000     2.844000000     2.374000000
C     3.259000000     2.154000000     2.754000000
C     4.491000000     2.432000000     2.107000000
H     4.563000000     3.248000000     1.392000000
C     3.193000000     1.030000000     3.622000000
H     2.205000000     0.770000000     3.992000000
O     1.245000000     3.091000000     3.570000000
H     1.330000000     2.255000000     1.724000000
C     0.083000000     4.867000000     0.780000000
C    -0.439000000     5.162000000     2.187000000
H    -1.220000000     5.923000000     2.145000000
H     0.361000000     5.628000000     2.766000000
C    -0.998000000     3.909000000     2.917000000
C    -0.134000000     3.021000000     3.578000000
C    -0.590000000     1.825000000     4.158000000
H     0.155000000     1.206000000     4.651000000
C    -1.956000000     1.515000000     4.025000000
O    -2.529000000     0.303000000     4.526000000
C    -2.678000000    -0.800000000     3.479000000
H    -2.187000000    -0.601000000     2.515000000
C    -2.131000000    -2.170000000     4.004000000
C    -2.598000000    -3.427000000     3.563000000
H    -3.472000000    -3.402000000     2.918000000
C    -1.121000000    -2.080000000     4.998000000
H    -0.808000000    -1.087000000     5.310000000
C    -0.561000000    -3.253000000     5.443000000
O     0.402000000    -3.142000000     6.383000000
C    -0.941000000    -4.500000000     4.964000000
H    -0.402000000    -5.398000000     5.253000000
C    -2.007000000    -4.557000000     4.050000000
O    -2.379000000    -5.796000000     3.572000000
C    -3.004000000    -5.902000000     2.377000000
C    -2.378000000    -5.763000000     1.193000000
H    -1.304000000    -5.604000000     1.251000000
C    -4.345000000    -6.295000000     2.345000000
H    -4.916000000    -6.280000000     3.269000000
C    -5.001000000    -6.550000000     1.132000000
H    -6.035000000    -6.882000000     1.099000000
C    -4.351000000    -6.335000000    -0.044000000
H    -4.853000000    -6.577000000    -0.977000000
C    -2.975000000    -5.967000000    -0.057000000
O    -2.211000000    -5.960000000    -1.246000000
C    -2.183000000    -4.971000000    -2.181000000
C    -1.376000000    -5.133000000    -3.270000000
H    -0.877000000    -6.093000000    -3.382000000
C    -1.253000000    -4.097000000    -4.209000000
O    -0.223000000    -4.248000000    -5.119000000
C     0.213000000    -3.338000000    -6.098000000
C     1.375000000    -2.727000000    -5.859000000
H     2.075000000    -3.056000000    -5.095000000
C    -0.714000000    -2.819000000    -7.083000000
H    -1.749000000    -3.151000000    -7.090000000
C    -0.288000000    -1.702000000    -7.808000000
H    -0.889000000    -1.228000000    -8.579000000
C     0.978000000    -1.156000000    -7.643000000
H     1.253000000    -0.273000000    -8.215000000
C     1.813000000    -1.638000000    -6.639000000
O     3.090000000    -1.078000000    -6.417000000
C     3.231000000    -0.123000000    -5.488000000
C     4.349000000    -0.199000000    -4.729000000
H     5.098000000    -0.972000000    -4.884000000
C     4.572000000     0.578000000    -3.608000000
O     5.605000000     0.271000000    -2.821000000
C     6.199000000     1.295000000    -1.995000000
C     6.222000000     1.093000000    -0.620000000
H     6.025000000     0.123000000    -0.170000000
C     6.857000000     2.403000000    -2.550000000
H     6.843000000     2.566000000    -3.625000000
C     7.415000000     3.395000000    -1.681000000
H     7.878000000     4.297000000    -2.075000000
C     7.424000000     3.164000000    -0.300000000
H     8.007000000     3.826000000     0.335000000
C     6.814000000     2.050000000     0.235000000
O     6.778000000     1.884000000     1.627000000
C     5.600000000     1.636000000     2.274000000
C     5.478000000     0.555000000     3.099000000
H     6.276000000    -0.174000000     3.210000000
C     4.338000000     0.252000000     3.767000000
O     4.233000000    -0.965000000     4.359000000
C     3.388000000    -1.206000000     5.483000000
C     3.408000000    -0.297000000     6.579000000
H     4.155000000     0.488000000     6.658000000
C     2.440000000    -0.413000000     7.577000000
H     2.494000000     0.249000000     8.438000000
C     1.466000000    -1.416000000     7.450000000
H     0.752000000    -1.594000000     8.250000000
C     1.458000000    -2.256000000     6.368000000
C     2.353000000    -2.146000000     5.352000000
H     2.215000000    -2.735000000     4.449000000
C     1.009000000    -3.185000000     0.141000000
H     1.150000000    -4.011000000     0.834000000
C     0.511000000    -1.941000000     0.552000000
H     0.209000000    -1.887000000     1.595000000
C     0.229000000    -0.911000000    -0.358000000
H    -0.154000000    -0.059000000     0.111000000
C     0.497000000    -1.129000000    -1.711000000
H     0.420000000    -0.236000000    -2.327000000
C     0.872000000    -2.349000000    -2.142000000
H     0.913000000    -2.591000000    -3.201000000
C     1.129000000    -3.385000000    -1.232000000
C     1.635000000    -4.719000000    -1.673000000
O     2.000000000    -4.847000000    -2.813000000
O     1.899000000    -5.581000000    -0.857000000
O     7.242000000    -3.702000000    -1.869000000
H     7.270000000    -3.502000000    -0.933000000
H     6.316000000    -3.857000000    -2.054000000
O     5.593000000    -6.882000000     1.472000000
H     5.330000000    -6.756000000     2.384000000
H     5.473000000    -6.023000000     1.067000000
O     5.101000000    -1.969000000     1.251000000
H     4.695000000    -1.923000000     2.117000000
H     4.366000000    -1.921000000     0.640000000
O     2.123000000    -5.338000000     3.235000000
H     2.458000000    -4.446000000     3.136000000
H     2.419000000    -5.609000000     4.104000000
O     4.417000000    -5.116000000    -0.187000000
H     3.465000000    -5.206000000    -0.167000000
H     4.567000000    -4.223000000    -0.499000000
O    -0.737000000    -8.561000000    -1.094000000
H    -1.034000000    -7.682000000    -0.860000000
H    -0.554000000    -8.983000000    -0.254000000
O     1.796000000    -8.753000000    -6.384000000
H     1.379000000    -9.429000000    -5.850000000
H     2.034000000    -8.068000000    -5.760000000
O     4.316000000    -3.645000000    -3.257000000
H     4.387000000    -3.730000000    -4.207000000
H     3.527000000    -4.139000000    -3.030000000
O     3.577000000    -1.801000000    -1.033000000
H     2.710000000    -1.548000000    -1.352000000
H     3.984000000    -2.247000000    -1.776000000
O     1.656000000    -8.562000000    -2.216000000
H     1.720000000    -7.607000000    -2.207000000
H     0.874000000    -8.754000000    -1.699000000
O     0.851000000    -6.875000000     1.074000000
H     1.417000000    -6.706000000     1.827000000
H     1.345000000    -6.543000000     0.324000000
O    -0.976000000    -8.641000000     2.080000000
H    -0.430000000    -7.935000000     1.735000000
H    -0.382000000    -9.388000000     2.156000000
O    -2.147000000    -8.328000000    -4.085000000
H    -2.043000000    -9.250000000    -4.318000000
H    -1.816000000    -8.269000000    -3.189000000
O     2.964000000    -9.556000000     0.237000000
H     3.912000000    -9.472000000     0.138000000
H     2.602000000    -8.901000000    -0.360000000
O     4.803000000    -5.969000000    -5.126000000
H     5.681000000    -5.612000000    -4.992000000
H     4.609000000    -6.438000000    -4.314000000
O     4.098000000    -6.980000000    -2.487000000
H     4.696000000    -6.809000000    -1.759000000
H     3.364000000    -6.383000000    -2.339000000
O     2.890000000    -5.694000000    -6.824000000
H     2.163000000    -5.884000000    -6.231000000
H     3.638000000    -5.543000000    -6.245000000
O     1.392000000    -6.345000000    -4.842000000
H     0.634000000    -5.799000000    -5.050000000
H     1.895000000    -5.828000000    -4.213000000
O     3.286000000    -9.711000000    -4.060000000
H     2.815000000    -9.270000000    -3.353000000
H     2.603000000   -10.158000000    -4.559000000
