215
-1461.43474
C     0.171000000     1.691000000     4.729000000
H    -0.872000000     1.644000000     5.033000000
C     0.477000000     2.463000000     3.617000000
C     1.793000000     2.586000000     3.267000000
H     2.025000000     3.168000000     2.379000000
C    -0.638000000     3.020000000     2.726000000
O    -1.967000000     2.927000000     3.346000000
H    -0.712000000     2.372000000     1.840000000
O    -0.412000000     4.343000000     2.274000000
C    -0.599000000     4.489000000     0.922000000
C     0.504000000     4.507000000     0.128000000
H     1.479000000     4.430000000     0.600000000
C     0.384000000     4.508000000    -1.249000000
O     1.556000000     4.486000000    -1.946000000
C    -0.907000000     4.497000000    -1.820000000
C    -1.128000000     4.460000000    -3.380000000
H    -2.128000000     4.826000000    -3.619000000
C    -0.907000000     3.081000000    -3.913000000
C    -2.086000000     2.322000000    -4.144000000
H    -3.068000000     2.788000000    -4.141000000
H    -0.494000000     5.249000000    -3.788000000
C    -2.000000000     4.438000000    -1.016000000
H    -3.004000000     4.397000000    -1.428000000
C    -1.895000000     4.501000000     0.343000000
C    -3.146000000     4.490000000     1.207000000
H    -3.837000000     5.115000000     0.638000000
H    -3.023000000     4.946000000     2.191000000
C    -3.508000000     3.070000000     1.475000000
C    -4.410000000     2.401000000     0.632000000
H    -4.809000000     2.912000000    -0.240000000
C    -2.978000000     2.413000000     2.620000000
C    -3.406000000     1.145000000     2.991000000
H    -2.980000000     0.668000000     3.869000000
C    -4.170000000     0.479000000     2.086000000
O    -4.301000000    -0.860000000     2.258000000
C    -3.575000000    -1.693000000     1.401000000
C    -2.986000000    -2.845000000     2.203000000
C    -2.686000000    -4.086000000     1.653000000
H    -2.854000000    -4.409000000     0.629000000
C    -2.667000000    -2.656000000     3.566000000
H    -2.834000000    -1.768000000     4.170000000
O    -4.384000000    -2.289000000     0.338000000
H    -2.692000000    -1.185000000     0.987000000
C    -4.652000000     1.050000000     0.912000000
C    -5.522000000     0.304000000    -0.093000000
H    -6.164000000     1.030000000    -0.596000000
H    -6.072000000    -0.506000000     0.391000000
C    -4.701000000    -0.430000000    -1.178000000
C    -4.447000000     0.148000000    -2.432000000
H    -4.842000000     1.119000000    -2.720000000
C    -4.151000000    -1.641000000    -0.826000000
C    -3.250000000    -2.296000000    -1.648000000
H    -2.633000000    -3.117000000    -1.293000000
C    -3.073000000    -1.780000000    -2.938000000
O    -2.067000000    -2.371000000    -3.747000000
C    -0.771000000    -1.842000000    -3.539000000
C     0.211000000    -2.961000000    -3.351000000
C    -0.169000000    -4.144000000    -2.784000000
H    -1.198000000    -4.238000000    -2.448000000
C     1.476000000    -2.769000000    -3.646000000
H     1.761000000    -1.823000000    -4.097000000
O    -0.454000000    -1.005000000    -4.609000000
H    -0.669000000    -1.282000000    -2.598000000
C    -3.613000000    -0.534000000    -3.266000000
C    -3.273000000     0.111000000    -4.540000000
H    -4.048000000     0.784000000    -4.912000000
H    -3.161000000    -0.631000000    -5.333000000
C    -1.962000000     0.990000000    -4.437000000
C    -0.679000000     0.385000000    -4.533000000
C     0.461000000     1.112000000    -4.325000000
H     1.464000000     0.712000000    -4.449000000
C     0.356000000     2.437000000    -4.084000000
O     1.557000000     3.032000000    -3.873000000
C     1.976000000     3.196000000    -2.472000000
H     1.578000000     2.413000000    -1.810000000
C     3.513000000     3.107000000    -2.333000000
C     4.228000000     3.805000000    -1.413000000
H     3.749000000     4.619000000    -0.875000000
C     4.153000000     2.079000000    -3.007000000
H     3.621000000     1.508000000    -3.764000000
C     5.423000000     1.665000000    -2.773000000
O     5.942000000     0.634000000    -3.455000000
C     6.186000000     2.428000000    -1.829000000
H     7.133000000     2.011000000    -1.496000000
C     5.606000000     3.525000000    -1.153000000
O     6.282000000     4.154000000    -0.125000000
C     5.849000000     4.116000000     1.192000000
C     5.147000000     3.026000000     1.733000000
H     4.985000000     2.124000000     1.149000000
C     5.967000000     5.285000000     1.980000000
H     6.327000000     6.160000000     1.443000000
C     5.403000000     5.398000000     3.177000000
H     5.401000000     6.332000000     3.734000000
C     4.675000000     4.412000000     3.751000000
H     4.281000000     4.494000000     4.761000000
C     4.616000000     3.179000000     3.060000000
O     4.081000000     1.990000000     3.498000000
C     2.804000000     1.911000000     3.984000000
C     2.504000000     1.076000000     5.069000000
H     3.292000000     0.433000000     5.452000000
C     1.197000000     1.041000000     5.461000000
O     0.923000000     0.416000000     6.639000000
C    -0.193000000    -0.334000000     6.888000000
C    -0.543000000    -1.416000000     6.038000000
H    -0.063000000    -1.522000000     5.069000000
C    -0.927000000    -0.063000000     8.011000000
H    -0.724000000     0.822000000     8.608000000
C    -2.061000000    -0.832000000     8.322000000
H    -2.739000000    -0.707000000     9.162000000
C    -2.326000000    -1.942000000     7.540000000
H    -3.125000000    -2.632000000     7.801000000
C    -1.613000000    -2.255000000     6.436000000
O    -1.999000000    -3.409000000     5.771000000
C    -2.149000000    -3.635000000     4.398000000
C    -1.894000000    -4.910000000     3.797000000
H    -1.480000000    -5.654000000     4.473000000
C    -2.177000000    -5.094000000     2.468000000
O    -1.883000000    -6.321000000     1.996000000
C    -1.787000000    -6.728000000     0.699000000
C    -0.824000000    -6.237000000    -0.134000000
H    -0.147000000    -5.436000000     0.150000000
C    -2.553000000    -7.829000000     0.310000000
H    -3.240000000    -8.220000000     1.055000000
C    -2.412000000    -8.410000000    -0.947000000
H    -2.997000000    -9.298000000    -1.175000000
C    -1.540000000    -7.850000000    -1.853000000
H    -1.631000000    -8.197000000    -2.879000000
C    -0.729000000    -6.800000000    -1.390000000
O     0.353000000    -6.434000000    -2.195000000
C     0.742000000    -5.141000000    -2.545000000
C     2.059000000    -4.958000000    -2.853000000
H     2.767000000    -5.763000000    -2.674000000
C     2.414000000    -3.758000000    -3.406000000
O     3.765000000    -3.661000000    -3.599000000
C     4.392000000    -2.606000000    -4.232000000
C     4.523000000    -2.623000000    -5.598000000
H     4.241000000    -3.560000000    -6.072000000
C     4.845000000    -1.475000000    -6.291000000
H     4.763000000    -1.420000000    -7.374000000
C     5.384000000    -0.400000000    -5.583000000
H     5.592000000     0.520000000    -6.123000000
C     5.336000000    -0.366000000    -4.215000000
C     4.818000000    -1.461000000    -3.510000000
H     4.824000000    -1.476000000    -2.423000000
C     1.841000000    -1.617000000    -0.471000000
H     2.662000000    -1.916000000    -1.117000000
C     1.071000000    -0.613000000    -0.919000000
H     1.208000000    -0.086000000    -1.859000000
C    -0.024000000    -0.254000000    -0.073000000
H    -0.557000000     0.696000000    -0.392000000
C    -0.265000000    -0.761000000     1.198000000
H    -1.080000000    -0.376000000     1.805000000
C     0.584000000    -1.837000000     1.620000000
H     0.354000000    -2.271000000     2.589000000
C     1.581000000    -2.259000000     0.760000000
C     2.423000000    -3.488000000     1.115000000
O     2.250000000    -4.069000000     2.168000000
O     3.413000000    -3.851000000     0.530000000
O     5.870000000    -1.911000000     3.733000000
H     6.388000000    -2.616000000     3.345000000
H     6.160000000    -1.121000000     3.277000000
O     5.907000000    -3.434000000    -0.106000000
H     6.067000000    -4.256000000    -0.570000000
H     5.045000000    -3.549000000     0.294000000
O     4.491000000    -5.544000000     2.936000000
H     4.438000000    -6.201000000     2.242000000
H     3.954000000    -4.817000000     2.620000000
O     2.797000000    -2.764000000     4.261000000
H     2.699000000    -3.423000000     3.573000000
H     3.434000000    -2.143000000     3.909000000
O     1.355000000    -4.320000000     6.399000000
H     1.834000000    -5.149000000     6.401000000
H     1.621000000    -3.891000000     5.586000000
O     6.771000000    -1.141000000     6.162000000
H     6.481000000    -1.549000000     5.346000000
H     7.545000000    -1.643000000     6.419000000
O     7.528000000     0.180000000     2.122000000
H     6.905000000    -0.013000000     1.422000000
H     8.365000000    -0.153000000     1.797000000
O     2.721000000    -6.368000000     4.945000000
H     3.545000000    -6.244000000     4.474000000
H     2.043000000    -6.208000000     4.289000000
O     1.709000000    -8.956000000     3.071000000
H     1.451000000    -8.035000000     3.040000000
H     1.949000000    -9.168000000     2.169000000
O     3.995000000    -6.439000000     0.469000000
H     4.785000000    -6.451000000    -0.071000000
H     3.637000000    -5.559000000     0.351000000
O     1.544000000    -9.287000000    -2.032000000
H     0.976000000    -8.703000000    -2.534000000
H     1.493000000    -8.957000000    -1.135000000
O     5.850000000    -0.673000000     0.115000000
H     4.913000000    -0.504000000     0.018000000
H     5.952000000    -1.597000000    -0.114000000
O     2.288000000    -8.909000000     0.521000000
H     2.940000000    -9.610000000     0.494000000
H     2.793000000    -8.121000000     0.724000000
O     8.694000000    -5.883000000     2.638000000
H     8.478000000    -4.989000000     2.371000000
H     9.558000000    -6.044000000     2.258000000
O     3.659000000    -1.712000000     6.691000000
H     3.355000000    -2.164000000     5.904000000
H     4.612000000    -1.793000000     6.660000000
O     6.639000000    -5.782000000     4.634000000
H     5.965000000    -5.655000000     3.967000000
H     7.465000000    -5.647000000     4.168000000
O     6.724000000    -6.037000000    -1.157000000
H     7.589000000    -5.704000000    -1.394000000
H     6.521000000    -6.681000000    -1.836000000
O     1.105000000    -6.456000000     2.524000000
H     0.169000000    -6.267000000     2.586000000
H     1.510000000    -5.608000000     2.343000000
O     7.594000000    -3.220000000     1.903000000
H     6.800000000    -3.549000000     1.481000000
H     7.854000000    -2.468000000     1.371000000
