215
-1464.55873
C     0.564000000     1.251000000     5.419000000
H    -0.369000000     0.777000000     5.713000000
C     0.721000000     2.233000000     4.468000000
C     1.992000000     2.765000000     4.120000000
H     2.167000000     3.602000000     3.449000000
C    -0.468000000     2.690000000     3.577000000
O    -1.702000000     2.347000000     4.238000000
H    -0.420000000     2.071000000     2.669000000
O    -0.369000000     4.073000000     3.161000000
C    -0.710000000     4.286000000     1.887000000
C     0.299000000     4.432000000     0.882000000
H     1.318000000     4.279000000     1.228000000
C     0.042000000     4.637000000    -0.451000000
O     1.062000000     4.523000000    -1.317000000
C    -1.277000000     4.580000000    -0.895000000
C    -1.639000000     4.667000000    -2.423000000
H    -2.595000000     5.190000000    -2.484000000
C    -1.682000000     3.335000000    -3.109000000
C    -2.897000000     2.639000000    -3.257000000
H    -3.810000000     3.055000000    -2.838000000
H    -0.952000000     5.341000000    -2.940000000
C    -2.294000000     4.279000000     0.049000000
H    -3.344000000     4.186000000    -0.215000000
C    -1.996000000     4.176000000     1.417000000
C    -3.194000000     3.978000000     2.357000000
H    -4.053000000     4.479000000     1.906000000
H    -2.981000000     4.334000000     3.367000000
C    -3.549000000     2.528000000     2.557000000
C    -4.477000000     1.852000000     1.753000000
H    -4.942000000     2.409000000     0.942000000
C    -2.767000000     1.776000000     3.444000000
C    -2.944000000     0.368000000     3.609000000
H    -2.336000000    -0.235000000     4.279000000
C    -3.872000000    -0.296000000     2.816000000
O    -3.805000000    -1.663000000     2.756000000
C    -3.101000000    -2.311000000     1.638000000
C    -2.075000000    -3.352000000     2.157000000
C    -1.600000000    -4.318000000     1.330000000
H    -2.103000000    -4.507000000     0.385000000
C    -1.521000000    -3.199000000     3.435000000
H    -1.726000000    -2.370000000     4.107000000
O    -4.017000000    -2.711000000     0.643000000
H    -2.400000000    -1.607000000     1.166000000
C    -4.648000000     0.464000000     1.900000000
C    -5.632000000    -0.318000000     0.926000000
H    -6.498000000     0.323000000     0.749000000
H    -6.040000000    -1.232000000     1.362000000
C    -4.895000000    -0.690000000    -0.363000000
C    -4.887000000     0.016000000    -1.503000000
H    -5.533000000     0.890000000    -1.503000000
C    -4.158000000    -1.900000000    -0.450000000
C    -3.453000000    -2.243000000    -1.602000000
H    -2.890000000    -3.173000000    -1.578000000
C    -3.447000000    -1.478000000    -2.692000000
O    -2.694000000    -1.881000000    -3.799000000
C    -1.406000000    -1.380000000    -3.924000000
C    -0.335000000    -2.436000000    -4.113000000
C    -0.615000000    -3.807000000    -3.994000000
H    -1.615000000    -4.192000000    -3.815000000
C     1.015000000    -2.048000000    -4.343000000
H     1.340000000    -1.030000000    -4.539000000
O    -1.496000000    -0.362000000    -4.967000000
H    -1.169000000    -0.887000000    -2.969000000
C    -4.213000000    -0.302000000    -2.668000000
C    -4.095000000     0.584000000    -3.877000000
H    -5.024000000     1.156000000    -3.922000000
H    -4.184000000    -0.044000000    -4.766000000
C    -2.859000000     1.388000000    -3.885000000
C    -1.718000000     0.924000000    -4.479000000
C    -0.542000000     1.660000000    -4.395000000
H     0.386000000     1.265000000    -4.799000000
C    -0.484000000     2.808000000    -3.629000000
O     0.765000000     3.420000000    -3.419000000
C     1.290000000     3.319000000    -2.054000000
H     0.913000000     2.418000000    -1.549000000
C     2.781000000     3.005000000    -2.140000000
C     3.583000000     2.969000000    -0.995000000
H     3.135000000     3.186000000    -0.029000000
C     3.394000000     2.469000000    -3.313000000
H     2.770000000     2.310000000    -4.188000000
C     4.742000000     2.180000000    -3.421000000
O     5.276000000     1.737000000    -4.621000000
C     5.522000000     2.332000000    -2.288000000
H     6.542000000     1.956000000    -2.271000000
C     4.979000000     2.740000000    -1.099000000
O     5.838000000     2.893000000    -0.029000000
C     5.463000000     3.615000000     1.053000000
C     5.291000000     2.901000000     2.247000000
H     5.634000000     1.870000000     2.283000000
C     5.245000000     4.986000000     1.000000000
H     5.408000000     5.422000000     0.019000000
C     4.734000000     5.633000000     2.136000000
H     4.589000000     6.710000000     2.171000000
C     4.462000000     4.871000000     3.269000000
H     4.144000000     5.410000000     4.158000000
C     4.651000000     3.477000000     3.315000000
O     4.340000000     2.890000000     4.544000000
C     3.131000000     2.367000000     4.883000000
C     2.951000000     1.408000000     5.874000000
H     3.805000000     1.103000000     6.473000000
C     1.659000000     0.918000000     6.154000000
O     1.486000000     0.057000000     7.243000000
C     0.639000000    -1.081000000     7.160000000
C     0.919000000    -2.036000000     6.143000000
H     1.678000000    -1.878000000     5.382000000
C    -0.445000000    -1.270000000     8.017000000
H    -0.504000000    -0.565000000     8.842000000
C    -1.338000000    -2.351000000     7.784000000
H    -2.155000000    -2.486000000     8.487000000
C    -1.122000000    -3.224000000     6.723000000
H    -1.769000000    -4.078000000     6.536000000
C     0.007000000    -3.058000000     5.903000000
O     0.249000000    -3.938000000     4.908000000
C    -0.487000000    -4.044000000     3.774000000
C     0.035000000    -4.961000000     2.965000000
H     0.833000000    -5.610000000     3.316000000
C    -0.474000000    -5.107000000     1.717000000
O     0.082000000    -6.097000000     0.931000000
C    -0.442000000    -6.417000000    -0.321000000
C     0.095000000    -5.996000000    -1.508000000
H     1.038000000    -5.457000000    -1.546000000
C    -1.561000000    -7.327000000    -0.304000000
H    -1.886000000    -7.666000000     0.676000000
C    -2.122000000    -7.719000000    -1.483000000
H    -2.960000000    -8.412000000    -1.504000000
C    -1.557000000    -7.241000000    -2.670000000
H    -2.040000000    -7.643000000    -3.557000000
C    -0.497000000    -6.376000000    -2.708000000
O     0.085000000    -6.066000000    -3.982000000
C     0.449000000    -4.743000000    -4.151000000
C     1.750000000    -4.357000000    -4.246000000
H     2.573000000    -5.065000000    -4.195000000
C     2.011000000    -3.070000000    -4.421000000
O     3.371000000    -2.680000000    -4.649000000
C     3.745000000    -1.508000000    -5.350000000
C     3.940000000    -1.591000000    -6.760000000
H     3.661000000    -2.483000000    -7.314000000
C     4.568000000    -0.511000000    -7.466000000
H     4.615000000    -0.528000000    -8.552000000
C     5.007000000     0.575000000    -6.690000000
H     5.518000000     1.411000000    -7.161000000
C     4.927000000     0.602000000    -5.278000000
C     4.308000000    -0.477000000    -4.623000000
H     4.306000000    -0.619000000    -3.545000000
C     1.843000000    -1.219000000    -0.591000000
H     2.443000000    -1.551000000    -1.434000000
C     0.820000000    -0.271000000    -0.974000000
H     0.600000000    -0.116000000    -2.027000000
C    -0.127000000     0.106000000     0.007000000
H    -0.874000000     0.796000000    -0.267000000
C    -0.058000000    -0.360000000     1.315000000
H    -0.800000000     0.023000000     2.012000000
C     0.948000000    -1.245000000     1.643000000
H     1.038000000    -1.599000000     2.667000000
C     1.911000000    -1.737000000     0.690000000
C     2.998000000    -2.611000000     1.118000000
O     2.960000000    -3.201000000     2.162000000
O     3.999000000    -2.673000000     0.480000000
O     4.944000000    -8.200000000    -2.198000000
H     4.556000000    -7.338000000    -2.048000000
H     5.645000000    -8.040000000    -2.830000000
O     6.709000000    -4.027000000     5.623000000
H     7.360000000    -3.430000000     5.255000000
H     6.780000000    -4.818000000     5.089000000
O     3.288000000    -4.607000000     7.192000000
H     3.407000000    -4.635000000     6.243000000
H     3.229000000    -5.526000000     7.454000000
O     5.671000000    -2.063000000    -1.522000000
H     6.155000000    -1.464000000    -0.953000000
H     4.916000000    -2.332000000    -1.000000000
O     5.042000000    -1.851000000     6.601000000
H     4.226000000    -2.136000000     7.013000000
H     5.481000000    -2.665000000     6.353000000
O     3.262000000    -7.166000000     4.820000000
H     3.469000000    -6.269000000     4.557000000
H     2.347000000    -7.130000000     5.099000000
O     7.295000000    -0.366000000     0.027000000
H     6.515000000    -0.166000000     0.545000000
H     8.011000000     0.060000000     0.499000000
O     0.856000000    -6.382000000     6.222000000
H     0.883000000    -6.070000000     7.126000000
H     0.590000000    -5.617000000     5.712000000
O     3.088000000    -8.820000000     1.353000000
H     3.182000000    -7.954000000     1.748000000
H     2.327000000    -9.201000000     1.791000000
O     9.227000000    -2.477000000     0.301000000
H     8.379000000    -2.034000000     0.272000000
H     9.864000000    -1.789000000     0.105000000
O     4.028000000    -5.639000000    -1.161000000
H     3.558000000    -5.937000000    -0.382000000
H     4.138000000    -4.698000000    -1.029000000
O     3.531000000    -4.598000000     4.275000000
H     2.978000000    -4.264000000     3.568000000
H     4.384000000    -4.192000000     4.124000000
O     6.257000000    -6.515000000     2.819000000
H     7.202000000    -6.508000000     2.670000000
H     5.924000000    -7.179000000     2.215000000
O     4.970000000    -0.436000000     4.383000000
H     5.821000000    -0.838000000     4.206000000
H     4.745000000    -0.731000000     5.266000000
O     7.771000000    -2.524000000     3.565000000
H     8.294000000    -3.086000000     2.994000000
H     6.868000000    -2.667000000     3.281000000
O     6.834000000    -4.061000000    -3.399000000
H     6.334000000    -4.766000000    -3.810000000
H     6.185000000    -3.570000000    -2.894000000
O     2.818000000    -6.065000000     1.337000000
H     1.961000000    -6.431000000     1.119000000
H     2.635000000    -5.160000000     1.590000000
O     5.127000000    -0.559000000     1.651000000
H     4.726000000    -0.478000000     2.516000000
H     4.795000000    -1.389000000     1.310000000
O     5.594000000    -3.747000000     2.638000000
H     5.594000000    -4.704000000     2.617000000
H     4.913000000    -3.494000000     2.015000000
