215
-1448.06342
C     0.057000000     1.780000000     4.306000000
H    -0.829000000     1.191000000     4.533000000
C    -0.008000000     2.950000000     3.501000000
C     1.129000000     3.757000000     3.425000000
H     1.164000000     4.645000000     2.799000000
C    -1.140000000     3.213000000     2.542000000
O    -2.404000000     3.072000000     3.051000000
H    -1.009000000     2.540000000     1.682000000
O    -0.879000000     4.483000000     1.941000000
C    -0.968000000     4.522000000     0.599000000
C     0.228000000     4.612000000    -0.088000000
H     1.187000000     4.675000000     0.420000000
C     0.189000000     4.528000000    -1.464000000
O     1.435000000     4.361000000    -2.067000000
C    -0.982000000     4.290000000    -2.187000000
C    -0.957000000     4.038000000    -3.736000000
H    -1.914000000     4.339000000    -4.166000000
C    -0.808000000     2.621000000    -4.169000000
C    -1.903000000     1.857000000    -4.361000000
H    -2.902000000     2.257000000    -4.209000000
H    -0.284000000     4.735000000    -4.240000000
C    -2.171000000     4.221000000    -1.463000000
H    -3.107000000     4.203000000    -2.016000000
C    -2.220000000     4.437000000    -0.092000000
C    -3.599000000     4.378000000     0.665000000
H    -4.475000000     4.618000000     0.058000000
H    -3.511000000     5.107000000     1.473000000
C    -3.983000000     2.986000000     1.159000000
C    -4.831000000     2.169000000     0.376000000
H    -5.210000000     2.448000000    -0.603000000
C    -3.356000000     2.424000000     2.273000000
C    -3.600000000     1.140000000     2.686000000
H    -3.121000000     0.648000000     3.529000000
C    -4.356000000     0.298000000     1.856000000
O    -4.399000000    -0.963000000     2.226000000
C    -3.580000000    -1.944000000     1.524000000
C    -2.899000000    -2.853000000     2.503000000
C    -2.265000000    -4.012000000     2.012000000
H    -2.297000000    -4.262000000     0.955000000
C    -2.813000000    -2.446000000     3.819000000
H    -3.234000000    -1.528000000     4.222000000
O    -4.212000000    -2.611000000     0.435000000
H    -2.719000000    -1.367000000     1.156000000
C    -4.950000000     0.804000000     0.669000000
C    -5.707000000    -0.173000000    -0.220000000
H    -6.463000000     0.450000000    -0.702000000
H    -6.312000000    -0.844000000     0.393000000
C    -4.779000000    -0.878000000    -1.189000000
C    -4.597000000    -0.380000000    -2.512000000
H    -5.184000000     0.484000000    -2.814000000
C    -4.148000000    -2.021000000    -0.814000000
C    -3.339000000    -2.767000000    -1.703000000
H    -2.804000000    -3.622000000    -1.296000000
C    -3.092000000    -2.289000000    -2.944000000
O    -2.137000000    -2.895000000    -3.663000000
C    -0.821000000    -2.316000000    -3.572000000
C     0.216000000    -3.418000000    -3.395000000
C    -0.122000000    -4.706000000    -2.864000000
H    -1.152000000    -4.973000000    -2.641000000
C     1.569000000    -3.145000000    -3.581000000
H     1.799000000    -2.096000000    -3.751000000
O    -0.496000000    -1.430000000    -4.689000000
H    -0.687000000    -1.684000000    -2.682000000
C    -3.629000000    -1.010000000    -3.335000000
C    -3.170000000    -0.340000000    -4.574000000
H    -3.977000000     0.273000000    -4.981000000
H    -2.995000000    -1.073000000    -5.365000000
C    -1.835000000     0.472000000    -4.389000000
C    -0.562000000    -0.119000000    -4.586000000
C     0.585000000     0.637000000    -4.399000000
H     1.592000000     0.232000000    -4.452000000
C     0.392000000     1.985000000    -4.182000000
O     1.517000000     2.757000000    -3.747000000
C     1.791000000     2.987000000    -2.351000000
H     1.148000000     2.377000000    -1.700000000
C     3.207000000     2.608000000    -1.997000000
C     3.930000000     3.296000000    -1.064000000
H     3.498000000     4.210000000    -0.665000000
C     3.936000000     1.548000000    -2.672000000
H     3.462000000     0.826000000    -3.333000000
C     5.318000000     1.267000000    -2.415000000
O     6.085000000     0.338000000    -3.089000000
C     5.949000000     2.024000000    -1.414000000
H     7.007000000     1.865000000    -1.221000000
C     5.227000000     2.986000000    -0.711000000
O     5.943000000     3.758000000     0.173000000
C     5.354000000     4.577000000     1.175000000
C     4.423000000     4.062000000     2.048000000
H     4.309000000     2.981000000     2.080000000
C     5.690000000     5.952000000     1.206000000
H     6.417000000     6.276000000     0.466000000
C     5.139000000     6.730000000     2.192000000
H     5.472000000     7.764000000     2.153000000
C     4.233000000     6.162000000     3.119000000
H     3.695000000     6.718000000     3.883000000
C     3.948000000     4.833000000     3.071000000
O     3.266000000     4.370000000     4.179000000
C     2.298000000     3.426000000     4.111000000
C     2.315000000     2.336000000     4.928000000
H     3.197000000     2.100000000     5.517000000
C     1.196000000     1.542000000     5.059000000
O     1.348000000     0.447000000     5.842000000
C     0.183000000    -0.153000000     6.425000000
C    -0.387000000    -1.251000000     5.862000000
H     0.000000000    -1.784000000     4.997000000
C    -0.162000000     0.272000000     7.770000000
H     0.333000000     1.156000000     8.163000000
C    -1.219000000    -0.381000000     8.388000000
H    -1.598000000    -0.010000000     9.337000000
C    -1.893000000    -1.426000000     7.774000000
H    -2.779000000    -1.869000000     8.222000000
C    -1.460000000    -1.911000000     6.536000000
O    -2.022000000    -3.037000000     6.023000000
C    -2.057000000    -3.192000000     4.702000000
C    -1.365000000    -4.321000000     4.168000000
H    -0.681000000    -4.912000000     4.771000000
C    -1.459000000    -4.719000000     2.846000000
O    -0.756000000    -5.838000000     2.372000000
C    -0.991000000    -6.515000000     1.195000000
C    -0.147000000    -6.280000000     0.052000000
H     0.619000000    -5.510000000     0.014000000
C    -1.816000000    -7.617000000     1.176000000
H    -2.331000000    -7.865000000     2.101000000
C    -1.945000000    -8.388000000     0.062000000
H    -2.514000000    -9.313000000     0.024000000
C    -1.162000000    -8.172000000    -1.021000000
H    -1.304000000    -8.789000000    -1.905000000
C    -0.316000000    -7.092000000    -1.068000000
O     0.493000000    -6.890000000    -2.189000000
C     0.875000000    -5.681000000    -2.724000000
C     2.161000000    -5.464000000    -3.049000000
H     2.933000000    -6.148000000    -2.706000000
C     2.535000000    -4.182000000    -3.473000000
O     3.887000000    -3.957000000    -3.527000000
C     4.463000000    -2.764000000    -4.014000000
C     4.646000000    -2.735000000    -5.412000000
H     4.150000000    -3.561000000    -5.915000000
C     5.170000000    -1.664000000    -6.076000000
H     5.242000000    -1.744000000    -7.158000000
C     5.581000000    -0.524000000    -5.282000000
H     6.151000000     0.307000000    -5.689000000
C     5.448000000    -0.651000000    -3.897000000
C     4.860000000    -1.723000000    -3.237000000
H     4.745000000    -1.610000000    -2.162000000
C     1.885000000    -0.875000000    -0.389000000
H     2.722000000    -1.174000000    -1.015000000
C     0.805000000    -0.125000000    -0.816000000
H     0.900000000     0.364000000    -1.782000000
C    -0.279000000     0.060000000    -0.002000000
H    -1.138000000     0.629000000    -0.337000000
C    -0.327000000    -0.449000000     1.307000000
H    -1.256000000    -0.363000000     1.865000000
C     0.783000000    -1.175000000     1.774000000
H     0.763000000    -1.659000000     2.747000000
C     1.860000000    -1.390000000     0.927000000
C     2.988000000    -2.210000000     1.462000000
O     3.113000000    -2.384000000     2.664000000
O     3.852000000    -2.594000000     0.712000000
O     6.067000000    -0.200000000     3.774000000
H     5.501000000    -0.971000000     3.812000000
H     6.187000000    -0.036000000     2.838000000
O     6.207000000    -3.581000000    -0.951000000
H     5.577000000    -4.299000000    -1.014000000
H     5.811000000    -2.968000000    -0.332000000
O     5.312000000    -4.149000000     2.884000000
H     6.128000000    -3.661000000     2.779000000
H     4.624000000    -3.496000000     2.754000000
O     3.452000000    -1.408000000     5.081000000
H     3.312000000    -1.857000000     4.248000000
H     2.809000000    -0.699000000     5.081000000
O     1.349000000    -4.540000000     6.229000000
H     2.144000000    -4.180000000     6.623000000
H     1.441000000    -4.360000000     5.294000000
O     7.154000000    -0.519000000     6.383000000
H     6.904000000    -0.264000000     5.495000000
H     7.936000000    -1.059000000     6.266000000
O     9.251000000    -0.584000000     1.615000000
H     8.513000000    -1.125000000     1.897000000
H     8.927000000    -0.120000000     0.843000000
O     7.595000000    -1.125000000    -0.730000000
H     7.878000000    -0.844000000    -1.600000000
H     7.476000000    -2.072000000    -0.811000000
O     4.215000000    -5.239000000     5.183000000
H     4.678000000    -4.744000000     4.507000000
H     3.420000000    -5.549000000     4.750000000
O     2.850000000    -5.096000000     0.003000000
H     3.600000000    -5.354000000    -0.534000000
H     3.117000000    -4.268000000     0.403000000
O     5.777000000    -0.363000000     1.162000000
H     5.238000000    -1.140000000     1.009000000
H     6.376000000    -0.338000000     0.416000000
O     2.908000000    -7.560000000     2.310000000
H     3.125000000    -8.229000000     1.661000000
H     2.672000000    -6.791000000     1.791000000
O     7.025000000    -5.966000000     1.753000000
H     7.223000000    -6.552000000     1.022000000
H     6.512000000    -5.259000000     1.361000000
O     7.471000000     2.075000000     3.700000000
H     8.221000000     1.862000000     4.255000000
H     6.899000000     1.311000000     3.767000000
O     4.857000000    -1.481000000     7.490000000
H     4.212000000    -1.492000000     6.782000000
H     5.646000000    -1.118000000     7.089000000
O     7.259000000    -5.892000000     5.328000000
H     6.526000000    -5.547000000     4.817000000
H     8.010000000    -5.836000000     4.737000000
O     5.110000000    -6.063000000    -1.358000000
H     5.743000000    -6.761000000    -1.190000000
H     5.254000000    -5.824000000    -2.274000000
O     1.956000000    -4.794000000     3.744000000
H     1.727000000    -5.435000000     3.071000000
H     2.121000000    -3.986000000     3.258000000
O     7.669000000    -2.920000000     2.293000000
H     8.303000000    -3.055000000     2.998000000
H     8.130000000    -3.193000000     1.500000000
