215
-1452.96386
C     0.261000000     1.955000000     4.706000000
H    -0.566000000     1.295000000     4.955000000
C    -0.002000000     2.898000000     3.718000000
C     1.094000000     3.707000000     3.422000000
H     0.942000000     4.409000000     2.607000000
C    -1.260000000     2.817000000     2.871000000
O    -2.418000000     2.358000000     3.675000000
H    -0.974000000     2.096000000     2.090000000
O    -1.587000000     4.065000000     2.300000000
C    -1.868000000     3.964000000     0.940000000
C    -0.880000000     4.413000000     0.087000000
H     0.059000000     4.769000000     0.503000000
C    -1.080000000     4.314000000    -1.258000000
O     0.082000000     4.368000000    -2.079000000
C    -2.290000000     3.842000000    -1.784000000
C    -2.604000000     3.725000000    -3.267000000
H    -3.648000000     3.994000000    -3.439000000
C    -2.262000000     2.314000000    -3.671000000
C    -3.183000000     1.232000000    -3.669000000
H    -4.193000000     1.398000000    -3.303000000
H    -2.029000000     4.463000000    -3.830000000
C    -3.298000000     3.449000000    -0.898000000
H    -4.284000000     3.112000000    -1.207000000
C    -3.132000000     3.561000000     0.475000000
C    -4.246000000     3.247000000     1.522000000
H    -5.221000000     3.366000000     1.044000000
H    -4.238000000     4.007000000     2.306000000
C    -4.138000000     1.861000000     2.027000000
C    -4.823000000     0.814000000     1.326000000
H    -5.407000000     1.195000000     0.492000000
C    -3.239000000     1.476000000     3.052000000
C    -3.147000000     0.122000000     3.400000000
H    -2.502000000    -0.145000000     4.233000000
C    -3.811000000    -0.882000000     2.671000000
O    -3.514000000    -2.133000000     3.011000000
C    -2.627000000    -2.905000000     2.177000000
C    -1.632000000    -3.631000000     2.977000000
C    -1.044000000    -4.762000000     2.413000000
H    -1.243000000    -5.081000000     1.393000000
C    -1.224000000    -3.288000000     4.307000000
H    -1.564000000    -2.358000000     4.756000000
O    -3.354000000    -3.646000000     1.158000000
H    -2.004000000    -2.194000000     1.614000000
C    -4.703000000    -0.559000000     1.635000000
C    -5.393000000    -1.728000000     0.943000000
H    -6.319000000    -1.372000000     0.488000000
H    -5.489000000    -2.594000000     1.601000000
C    -4.456000000    -2.109000000    -0.304000000
C    -4.517000000    -1.487000000    -1.562000000
H    -5.231000000    -0.675000000    -1.665000000
C    -3.519000000    -3.050000000    -0.119000000
C    -2.606000000    -3.411000000    -1.089000000
H    -1.803000000    -4.096000000    -0.828000000
C    -2.728000000    -2.934000000    -2.381000000
O    -1.716000000    -3.283000000    -3.304000000
C    -0.665000000    -2.267000000    -3.448000000
C     0.643000000    -2.879000000    -3.445000000
C     0.963000000    -3.846000000    -2.532000000
H     0.295000000    -4.113000000    -1.717000000
C     1.733000000    -2.300000000    -4.150000000
H     1.601000000    -1.377000000    -4.709000000
O    -0.813000000    -1.490000000    -4.656000000
H    -0.544000000    -1.600000000    -2.582000000
C    -3.638000000    -1.863000000    -2.604000000
C    -3.809000000    -1.163000000    -3.967000000
H    -4.813000000    -0.762000000    -4.122000000
H    -3.749000000    -1.964000000    -4.707000000
C    -2.805000000    -0.050000000    -4.110000000
C    -1.410000000    -0.256000000    -4.486000000
C    -0.541000000     0.824000000    -4.533000000
H     0.502000000     0.662000000    -4.791000000
C    -0.934000000     2.047000000    -4.078000000
O     0.013000000     3.008000000    -4.010000000
C     0.632000000     3.213000000    -2.700000000
H     0.420000000     2.354000000    -2.047000000
C     2.094000000     3.290000000    -2.688000000
C     2.782000000     3.808000000    -1.572000000
H     2.220000000     4.234000000    -0.745000000
C     2.902000000     2.751000000    -3.756000000
H     2.607000000     2.375000000    -4.732000000
C     4.283000000     2.828000000    -3.704000000
O     5.078000000     2.314000000    -4.785000000
C     4.899000000     3.464000000    -2.658000000
H     5.982000000     3.560000000    -2.632000000
C     4.124000000     3.951000000    -1.614000000
O     4.850000000     4.704000000    -0.660000000
C     4.268000000     5.241000000     0.393000000
C     4.156000000     4.560000000     1.571000000
H     4.596000000     3.579000000     1.733000000
C     3.745000000     6.521000000     0.329000000
H     4.001000000     7.012000000    -0.606000000
C     3.143000000     7.175000000     1.423000000
H     2.840000000     8.216000000     1.342000000
C     3.048000000     6.495000000     2.591000000
H     2.646000000     6.894000000     3.519000000
C     3.550000000     5.206000000     2.656000000
O     3.425000000     4.457000000     3.841000000
C     2.342000000     3.658000000     4.081000000
C     2.545000000     2.616000000     4.990000000
H     3.534000000     2.348000000     5.352000000
C     1.543000000     1.756000000     5.332000000
O     1.881000000     0.736000000     6.170000000
C     0.913000000    -0.141000000     6.674000000
C     0.992000000    -1.421000000     6.216000000
H     1.720000000    -1.709000000     5.461000000
C     0.214000000     0.189000000     7.810000000
H     0.205000000     1.197000000     8.218000000
C    -0.470000000    -0.823000000     8.497000000
H    -1.038000000    -0.594000000     9.395000000
C    -0.491000000    -2.099000000     7.969000000
H    -0.967000000    -2.886000000     8.548000000
C     0.175000000    -2.375000000     6.781000000
O     0.100000000    -3.666000000     6.247000000
C    -0.249000000    -3.987000000     4.959000000
C     0.352000000    -5.096000000     4.376000000
H     1.081000000    -5.708000000     4.901000000
C    -0.068000000    -5.476000000     3.145000000
O     0.522000000    -6.598000000     2.586000000
C     0.592000000    -6.791000000     1.239000000
C     1.516000000    -6.129000000     0.375000000
H     2.304000000    -5.459000000     0.712000000
C    -0.360000000    -7.633000000     0.638000000
H    -1.064000000    -8.135000000     1.297000000
C    -0.370000000    -7.867000000    -0.738000000
H    -1.101000000    -8.491000000    -1.246000000
C     0.496000000    -7.115000000    -1.553000000
H     0.538000000    -7.287000000    -2.625000000
C     1.421000000    -6.290000000    -1.011000000
O     2.433000000    -5.651000000    -1.738000000
C     2.219000000    -4.539000000    -2.553000000
C     3.240000000    -4.052000000    -3.372000000
H     4.252000000    -4.445000000    -3.325000000
C     3.000000000    -2.897000000    -4.145000000
O     4.022000000    -2.460000000    -4.955000000
C     4.206000000    -1.192000000    -5.519000000
C     4.021000000    -1.113000000    -6.875000000
H     3.583000000    -1.972000000    -7.376000000
C     4.317000000     0.106000000    -7.508000000
H     4.081000000     0.329000000    -8.545000000
C     4.799000000     1.184000000    -6.785000000
H     4.980000000     2.130000000    -7.289000000
C     4.716000000     1.116000000    -5.412000000
C     4.689000000    -0.156000000    -4.764000000
H     4.915000000    -0.228000000    -3.703000000
C     2.672000000    -1.790000000    -0.946000000
H     3.479000000    -1.761000000    -1.673000000
C     1.647000000    -0.884000000    -1.052000000
H     1.542000000    -0.132000000    -1.830000000
C     0.704000000    -0.798000000    -0.034000000
H    -0.049000000     0.021000000    -0.127000000
C     0.856000000    -1.601000000     1.161000000
H     0.216000000    -1.426000000     2.022000000
C     1.784000000    -2.618000000     1.139000000
H     1.848000000    -3.333000000     1.956000000
C     2.743000000    -2.706000000     0.115000000
C     4.091000000    -3.540000000     0.266000000
O     4.338000000    -3.994000000     1.349000000
O     4.886000000    -3.633000000    -0.613000000
O     5.113000000    -6.474000000    -0.403000000
H     6.054000000    -6.341000000    -0.520000000
H     4.796000000    -5.640000000    -0.056000000
O     2.557000000    -8.304000000     4.019000000
H     3.075000000    -7.532000000     3.790000000
H     2.401000000    -8.745000000     3.184000000
O     7.992000000    -7.822000000     0.437000000
H     7.595000000    -8.282000000    -0.302000000
H     8.246000000    -6.970000000     0.080000000
O     7.270000000    -2.136000000     3.472000000
H     8.170000000    -2.381000000     3.259000000
H     7.350000000    -1.287000000     3.907000000
O     7.213000000    -3.363000000     0.760000000
H     7.160000000    -3.306000000     1.714000000
H     6.324000000    -3.586000000     0.483000000
O     3.756000000    -3.956000000     6.018000000
H     4.250000000    -3.138000000     5.958000000
H     3.838000000    -4.349000000     5.149000000
O     7.339000000    -5.891000000    -3.213000000
H     6.920000000    -5.044000000    -3.061000000
H     7.928000000    -6.005000000    -2.467000000
O     7.381000000    -5.074000000     3.825000000
H     7.433000000    -4.120000000     3.875000000
H     8.218000000    -5.340000000     3.445000000
O     8.274000000    -5.220000000    -0.708000000
H     7.671000000    -4.650000000    -0.230000000
H     9.128000000    -4.798000000    -0.614000000
O     4.474000000    -2.204000000     3.345000000
H     4.343000000    -2.938000000     2.745000000
H     5.423000000    -2.159000000     3.464000000
O     4.653000000    -7.449000000    -3.344000000
H     5.254000000    -6.774000000    -3.028000000
H     3.882000000    -7.365000000    -2.783000000
O     4.218000000    -0.926000000     5.669000000
H     3.599000000    -0.198000000     5.619000000
H     4.134000000    -1.371000000     4.826000000
O     3.847000000    -8.332000000     1.221000000
H     4.702000000    -8.548000000     1.594000000
H     4.023000000    -7.601000000     0.627000000
O     8.039000000    -1.225000000    -0.831000000
H     7.702000000    -1.887000000    -0.228000000
H     8.990000000    -1.327000000    -0.791000000
O     6.570000000    -3.006000000    -2.680000000
H     6.049000000    -3.196000000    -1.900000000
H     7.260000000    -2.418000000    -2.370000000
O     7.439000000    -2.493000000    -5.362000000
H     7.338000000    -2.710000000    -4.435000000
H     7.013000000    -3.214000000    -5.825000000
O     4.599000000    -5.517000000     3.718000000
H     4.378000000    -5.190000000     2.846000000
H     5.556000000    -5.540000000     3.730000000
O     4.358000000     1.442000000     0.602000000
H     3.928000000     0.594000000     0.716000000
H     4.237000000     1.648000000    -0.325000000
O     8.549000000     1.414000000     0.207000000
H     9.401000000     1.482000000    -0.224000000
H     8.138000000     0.647000000    -0.192000000
