215
-1442.34975
C     0.808000000     1.162000000     4.984000000
H     0.148000000     0.354000000     5.289000000
C     0.493000000     2.233000000     4.163000000
C     1.490000000     3.167000000     3.943000000
H     1.224000000     3.913000000     3.199000000
C    -0.856000000     2.303000000     3.506000000
O    -1.903000000     1.658000000     4.279000000
H    -0.751000000     1.776000000     2.546000000
O    -1.369000000     3.604000000     3.260000000
C    -1.759000000     3.845000000     1.972000000
C    -0.814000000     4.312000000     1.039000000
H     0.207000000     4.562000000     1.319000000
C    -1.195000000     4.421000000    -0.305000000
O    -0.087000000     4.718000000    -1.214000000
C    -2.553000000     4.237000000    -0.649000000
C    -2.968000000     4.437000000    -2.038000000
H    -4.017000000     4.740000000    -2.055000000
C    -2.733000000     3.122000000    -2.776000000
C    -3.669000000     2.138000000    -2.776000000
H    -4.513000000     2.301000000    -2.111000000
H    -2.356000000     5.239000000    -2.457000000
C    -3.444000000     3.760000000     0.324000000
H    -4.502000000     3.759000000     0.074000000
C    -3.028000000     3.487000000     1.613000000
C    -4.011000000     2.819000000     2.523000000
H    -5.006000000     3.020000000     2.123000000
H    -3.908000000     3.275000000     3.510000000
C    -3.809000000     1.335000000     2.752000000
C    -4.628000000     0.374000000     2.114000000
H    -5.374000000     0.684000000     1.387000000
C    -2.830000000     0.859000000     3.676000000
C    -2.756000000    -0.541000000     3.868000000
H    -1.943000000    -1.043000000     4.386000000
C    -3.460000000    -1.416000000     3.168000000
O    -2.933000000    -2.717000000     3.196000000
C    -2.291000000    -3.283000000     2.043000000
C    -1.232000000    -4.314000000     2.289000000
C    -0.913000000    -5.351000000     1.370000000
H    -1.598000000    -5.627000000     0.572000000
C    -0.389000000    -4.022000000     3.362000000
H    -0.743000000    -3.318000000     4.110000000
O    -3.298000000    -3.863000000     1.227000000
H    -1.832000000    -2.487000000     1.439000000
C    -4.478000000    -0.968000000     2.363000000
C    -5.354000000    -1.874000000     1.542000000
H    -6.337000000    -1.427000000     1.380000000
H    -5.601000000    -2.785000000     2.090000000
C    -4.674000000    -2.218000000     0.262000000
C    -4.907000000    -1.309000000    -0.828000000
H    -5.641000000    -0.511000000    -0.741000000
C    -3.662000000    -3.111000000     0.164000000
C    -2.899000000    -3.246000000    -1.014000000
H    -2.127000000    -4.005000000    -1.109000000
C    -3.090000000    -2.316000000    -2.044000000
O    -2.311000000    -2.452000000    -3.134000000
C    -1.322000000    -1.413000000    -3.456000000
C    -0.002000000    -2.117000000    -3.787000000
C     0.578000000    -3.136000000    -3.044000000
H     0.128000000    -3.430000000    -2.099000000
C     0.688000000    -1.606000000    -4.904000000
H     0.281000000    -0.761000000    -5.453000000
O    -1.838000000    -0.579000000    -4.539000000
H    -1.015000000    -0.723000000    -2.656000000
C    -4.062000000    -1.308000000    -1.934000000
C    -4.411000000    -0.302000000    -3.039000000
H    -5.464000000    -0.030000000    -2.949000000
H    -4.322000000    -0.814000000    -4.000000000
C    -3.432000000     0.863000000    -3.327000000
C    -2.219000000     0.680000000    -4.002000000
C    -1.225000000     1.676000000    -4.096000000
H    -0.365000000     1.444000000    -4.719000000
C    -1.491000000     2.852000000    -3.387000000
O    -0.418000000     3.666000000    -3.273000000
C     0.282000000     3.633000000    -1.990000000
H     0.113000000     2.687000000    -1.456000000
C     1.850000000     3.634000000    -2.143000000
C     2.697000000     3.878000000    -1.093000000
H     2.263000000     4.058000000    -0.112000000
C     2.440000000     3.191000000    -3.377000000
H     1.830000000     2.870000000    -4.217000000
C     3.820000000     3.061000000    -3.515000000
O     4.441000000     2.520000000    -4.606000000
C     4.613000000     3.457000000    -2.509000000
H     5.688000000     3.321000000    -2.594000000
C     4.108000000     3.825000000    -1.228000000
O     4.932000000     4.107000000    -0.162000000
C     4.494000000     4.777000000     0.920000000
C     4.200000000     4.044000000     2.084000000
H     4.243000000     2.958000000     2.083000000
C     4.436000000     6.158000000     0.840000000
H     4.589000000     6.705000000    -0.086000000
C     4.101000000     6.828000000     2.003000000
H     4.051000000     7.914000000     1.996000000
C     3.757000000     6.182000000     3.171000000
H     3.495000000     6.786000000     4.036000000
C     3.821000000     4.789000000     3.230000000
O     3.668000000     4.084000000     4.368000000
C     2.723000000     3.134000000     4.615000000
C     2.904000000     2.140000000     5.483000000
H     3.824000000     2.017000000     6.049000000
C     2.041000000     1.083000000     5.634000000
O     2.351000000     0.083000000     6.591000000
C     1.621000000    -1.106000000     6.600000000
C     1.987000000    -2.097000000     5.698000000
H     2.950000000    -1.985000000     5.206000000
C     0.458000000    -1.246000000     7.350000000
H     0.166000000    -0.454000000     8.035000000
C    -0.325000000    -2.376000000     7.252000000
H    -1.282000000    -2.437000000     7.763000000
C     0.052000000    -3.389000000     6.390000000
H    -0.641000000    -4.222000000     6.309000000
C     1.193000000    -3.269000000     5.558000000
O     1.538000000    -4.289000000     4.650000000
C     0.774000000    -4.733000000     3.616000000
C     1.087000000    -5.817000000     2.817000000
H     1.986000000    -6.343000000     3.128000000
C     0.270000000    -6.092000000     1.668000000
O     0.596000000    -7.157000000     0.853000000
C     1.050000000    -7.130000000    -0.465000000
C     1.659000000    -5.924000000    -0.881000000
H     1.807000000    -5.104000000    -0.183000000
C     0.858000000    -8.163000000    -1.397000000
H     0.356000000    -9.068000000    -1.067000000
C     1.142000000    -8.002000000    -2.738000000
H     0.900000000    -8.786000000    -3.451000000
C     1.725000000    -6.847000000    -3.150000000
H     1.712000000    -6.484000000    -4.174000000
C     2.052000000    -5.819000000    -2.223000000
O     2.567000000    -4.630000000    -2.633000000
C     1.866000000    -3.706000000    -3.406000000
C     2.433000000    -3.187000000    -4.531000000
H     3.429000000    -3.567000000    -4.744000000
C     1.914000000    -2.182000000    -5.296000000
O     2.674000000    -1.665000000    -6.311000000
C     2.935000000    -0.264000000    -6.406000000
C     2.963000000     0.198000000    -7.713000000
H     2.544000000    -0.420000000    -8.502000000
C     3.328000000     1.521000000    -7.939000000
H     3.260000000     1.957000000    -8.933000000
C     3.777000000     2.299000000    -6.904000000
H     4.146000000     3.299000000    -7.118000000
C     3.817000000     1.764000000    -5.611000000
C     3.396000000     0.478000000    -5.370000000
H     3.519000000     0.160000000    -4.338000000
C     2.442000000    -0.917000000    -1.496000000
H     3.185000000    -0.903000000    -2.289000000
C     1.284000000    -0.145000000    -1.510000000
H     1.134000000     0.558000000    -2.326000000
C     0.357000000    -0.290000000    -0.504000000
H    -0.516000000     0.335000000    -0.516000000
C     0.652000000    -1.162000000     0.533000000
H    -0.073000000    -1.245000000     1.339000000
C     1.758000000    -1.950000000     0.594000000
H     1.914000000    -2.397000000     1.572000000
C     2.627000000    -1.870000000    -0.453000000
C     3.787000000    -2.813000000    -0.548000000
O     3.797000000    -3.860000000     0.087000000
O     4.840000000    -2.451000000    -1.080000000
O     7.102000000    -6.012000000    -4.297000000
H     6.702000000    -5.480000000    -3.609000000
H     7.426000000    -5.375000000    -4.934000000
O     4.913000000    -3.511000000     2.408000000
H     4.485000000    -3.728000000     1.580000000
H     4.648000000    -2.608000000     2.585000000
O     9.000000000    -2.206000000     1.936000000
H     9.170000000    -3.130000000     2.118000000
H     8.070000000    -2.174000000     1.709000000
O     6.232000000    -1.324000000     0.719000000
H     5.852000000    -1.968000000     0.122000000
H     5.573000000    -1.215000000     1.404000000
O     2.878000000    -8.863000000     1.436000000
H     3.709000000    -8.391000000     1.499000000
H     2.365000000    -8.360000000     0.803000000
O     5.658000000    -0.451000000    -2.597000000
H     5.777000000    -0.700000000    -3.513000000
H     5.410000000    -1.266000000    -2.159000000
O     7.943000000    -8.052000000    -1.522000000
H     7.327000000    -7.486000000    -1.987000000
H     7.828000000    -8.913000000    -1.923000000
O     6.445000000    -5.865000000     2.328000000
H     5.991000000    -5.023000000     2.354000000
H     5.883000000    -6.423000000     1.788000000
O     9.016000000    -6.769000000     0.606000000
H     8.614000000    -7.181000000    -0.158000000
H     8.829000000    -5.836000000     0.503000000
O     4.773000000    -4.586000000     4.804000000
H     4.741000000    -4.098000000     3.981000000
H     4.971000000    -3.926000000     5.468000000
O     8.368000000    -1.385000000    -0.997000000
H     8.830000000    -2.122000000    -0.596000000
H     7.596000000    -1.258000000    -0.445000000
O     6.088000000     1.267000000    -0.228000000
H     5.638000000     1.100000000    -1.056000000
H     6.068000000     0.427000000     0.229000000
O     4.507000000    -0.631000000     2.613000000
H     4.066000000     0.207000000     2.755000000
H     5.299000000    -0.579000000     3.148000000
O     4.530000000    -7.011000000    -4.630000000
H     3.786000000    -7.336000000    -5.137000000
H     5.037000000    -6.493000000    -5.256000000
O     5.009000000    -7.039000000    -2.038000000
H     4.522000000    -6.853000000    -2.841000000
H     4.872000000    -7.975000000    -1.887000000
O     7.744000000    -2.502000000    -3.682000000
H     7.107000000    -3.208000000    -3.574000000
H     7.993000000    -2.265000000    -2.789000000
O     7.501000000    -4.049000000     0.086000000
H     7.238000000    -4.669000000     0.766000000
H     6.878000000    -4.194000000    -0.626000000
O     4.344000000    -6.519000000     0.600000000
H     4.647000000    -6.655000000    -0.298000000
H     4.149000000    -5.583000000     0.648000000
O     6.129000000    -4.534000000    -2.312000000
H     5.676000000    -5.375000000    -2.242000000
H     5.543000000    -3.910000000    -1.884000000
