215
-1437.39209
C     0.942000000     1.023000000     5.043000000
H     0.062000000     0.440000000     5.303000000
C     0.870000000     2.136000000     4.253000000
C     2.023000000     2.893000000     4.020000000
H     1.929000000     3.767000000     3.382000000
C    -0.442000000     2.437000000     3.606000000
O    -1.569000000     2.137000000     4.495000000
H    -0.582000000     1.763000000     2.748000000
O    -0.584000000     3.862000000     3.203000000
C    -1.090000000     4.099000000     1.961000000
C    -0.186000000     4.563000000     1.002000000
H     0.856000000     4.477000000     1.296000000
C    -0.560000000     4.663000000    -0.329000000
O     0.477000000     4.810000000    -1.246000000
C    -1.891000000     4.332000000    -0.719000000
C    -2.464000000     4.519000000    -2.138000000
H    -3.538000000     4.695000000    -2.049000000
C    -2.249000000     3.259000000    -2.948000000
C    -3.235000000     2.284000000    -3.056000000
H    -4.168000000     2.459000000    -2.527000000
H    -2.001000000     5.373000000    -2.637000000
C    -2.772000000     4.013000000     0.309000000
H    -3.802000000     3.837000000     0.010000000
C    -2.431000000     3.943000000     1.688000000
C    -3.455000000     3.560000000     2.798000000
H    -4.461000000     3.899000000     2.542000000
H    -3.192000000     4.035000000     3.746000000
C    -3.478000000     2.099000000     2.982000000
C    -4.223000000     1.360000000     2.026000000
H    -4.757000000     1.821000000     1.198000000
C    -2.616000000     1.453000000     3.904000000
C    -2.538000000     0.092000000     3.878000000
H    -1.841000000    -0.461000000     4.502000000
C    -3.304000000    -0.665000000     2.998000000
O    -3.109000000    -2.029000000     3.042000000
C    -2.507000000    -2.605000000     1.836000000
C    -1.543000000    -3.791000000     2.267000000
C    -1.236000000    -4.795000000     1.392000000
H    -1.728000000    -4.744000000     0.424000000
C    -0.908000000    -3.775000000     3.513000000
H    -1.118000000    -2.963000000     4.205000000
O    -3.600000000    -3.102000000     1.024000000
H    -1.887000000    -1.936000000     1.221000000
C    -4.196000000    -0.010000000     2.111000000
C    -5.173000000    -0.800000000     1.231000000
H    -6.125000000    -0.281000000     1.100000000
H    -5.583000000    -1.636000000     1.801000000
C    -4.553000000    -1.220000000    -0.073000000
C    -4.671000000    -0.385000000    -1.170000000
H    -5.364000000     0.451000000    -1.111000000
C    -3.857000000    -2.390000000    -0.137000000
C    -3.232000000    -2.808000000    -1.283000000
H    -2.753000000    -3.772000000    -1.435000000
C    -3.261000000    -1.921000000    -2.392000000
O    -2.536000000    -2.254000000    -3.476000000
C    -1.334000000    -1.470000000    -3.829000000
C    -0.207000000    -2.378000000    -4.354000000
C    -0.309000000    -3.739000000    -4.021000000
H    -1.197000000    -4.202000000    -3.600000000
C     1.001000000    -1.875000000    -4.827000000
H     1.148000000    -0.811000000    -4.995000000
O    -1.616000000    -0.468000000    -4.766000000
H    -0.886000000    -1.039000000    -2.922000000
C    -4.038000000    -0.786000000    -2.396000000
C    -4.151000000     0.051000000    -3.670000000
H    -5.006000000     0.720000000    -3.559000000
H    -4.304000000    -0.573000000    -4.553000000
C    -3.080000000     1.103000000    -3.752000000
C    -1.874000000     0.819000000    -4.303000000
C    -0.811000000     1.751000000    -4.204000000
H     0.230000000     1.634000000    -4.492000000
C    -1.001000000     2.870000000    -3.432000000
O     0.102000000     3.713000000    -3.310000000
C     0.794000000     3.692000000    -2.037000000
H     0.459000000     2.899000000    -1.353000000
C     2.271000000     3.472000000    -2.249000000
C     3.079000000     3.642000000    -1.190000000
H     2.653000000     4.068000000    -0.285000000
C     2.828000000     3.209000000    -3.498000000
H     2.220000000     2.974000000    -4.368000000
C     4.160000000     2.852000000    -3.551000000
O     4.710000000     2.377000000    -4.710000000
C     4.995000000     3.014000000    -2.447000000
H     6.015000000     2.641000000    -2.482000000
C     4.474000000     3.446000000    -1.259000000
O     5.265000000     3.564000000    -0.149000000
C     4.986000000     4.191000000     0.968000000
C     4.755000000     3.553000000     2.151000000
H     4.817000000     2.470000000     2.079000000
C     5.079000000     5.569000000     1.051000000
H     5.311000000     6.102000000     0.132000000
C     4.979000000     6.246000000     2.330000000
H     5.333000000     7.271000000     2.404000000
C     4.781000000     5.560000000     3.518000000
H     4.680000000     6.162000000     4.418000000
C     4.584000000     4.170000000     3.417000000
O     4.313000000     3.371000000     4.536000000
C     3.219000000     2.567000000     4.597000000
C     3.298000000     1.455000000     5.405000000
H     4.195000000     1.125000000     5.923000000
C     2.210000000     0.629000000     5.593000000
O     2.225000000    -0.304000000     6.615000000
C     1.301000000    -1.394000000     6.697000000
C     1.402000000    -2.514000000     5.878000000
H     2.064000000    -2.509000000     5.017000000
C     0.357000000    -1.407000000     7.726000000
H     0.365000000    -0.566000000     8.415000000
C    -0.452000000    -2.543000000     7.877000000
H    -1.071000000    -2.604000000     8.768000000
C    -0.310000000    -3.657000000     7.007000000
H    -0.948000000    -4.521000000     7.176000000
C     0.546000000    -3.621000000     5.947000000
O     0.748000000    -4.638000000     5.053000000
C     0.010000000    -4.733000000     3.860000000
C     0.371000000    -5.690000000     2.929000000
H     1.074000000    -6.475000000     3.198000000
C    -0.257000000    -5.742000000     1.690000000
O     0.254000000    -6.653000000     0.821000000
C    -0.212000000    -6.844000000    -0.506000000
C     0.523000000    -6.352000000    -1.569000000
H     1.525000000    -5.980000000    -1.372000000
C    -1.496000000    -7.462000000    -0.732000000
H    -2.091000000    -7.798000000     0.113000000
C    -1.927000000    -7.602000000    -2.058000000
H    -2.881000000    -8.103000000    -2.203000000
C    -1.189000000    -7.069000000    -3.068000000
H    -1.520000000    -7.079000000    -4.104000000
C     0.031000000    -6.470000000    -2.836000000
O     0.740000000    -5.947000000    -3.860000000
C     0.778000000    -4.590000000    -4.290000000
C     1.953000000    -4.082000000    -4.759000000
H     2.840000000    -4.686000000    -4.934000000
C     2.093000000    -2.740000000    -5.001000000
O     3.322000000    -2.187000000    -5.308000000
C     3.552000000    -0.900000000    -5.874000000
C     3.189000000    -0.582000000    -7.162000000
H     2.663000000    -1.302000000    -7.784000000
C     3.292000000     0.759000000    -7.596000000
H     2.967000000     0.897000000    -8.624000000
C     3.841000000     1.769000000    -6.782000000
H     3.753000000     2.821000000    -7.040000000
C     4.249000000     1.391000000    -5.526000000
C     4.058000000     0.056000000    -5.038000000
H     4.322000000    -0.125000000    -3.999000000
C     2.552000000    -1.918000000    -0.800000000
H     3.286000000    -2.166000000    -1.563000000
C     1.400000000    -1.120000000    -1.029000000
H     1.042000000    -0.854000000    -2.021000000
C     0.477000000    -0.878000000     0.001000000
H    -0.380000000    -0.298000000    -0.138000000
C     0.799000000    -1.209000000     1.287000000
H     0.164000000    -0.964000000     2.135000000
C     1.913000000    -1.969000000     1.575000000
H     2.009000000    -2.270000000     2.615000000
C     2.831000000    -2.311000000     0.567000000
C     4.072000000    -3.108000000     0.898000000
O     4.369000000    -3.189000000     2.078000000
O     4.679000000    -3.716000000     0.010000000
O     5.977000000    -7.438000000     4.609000000
H     5.302000000    -7.317000000     3.942000000
H     6.379000000    -6.574000000     4.702000000
O     5.774000000    -1.638000000     3.614000000
H     5.127000000    -2.056000000     3.047000000
H     5.687000000    -2.091000000     4.453000000
O     8.428000000    -4.660000000     4.300000000
H     8.053000000    -4.550000000     3.427000000
H     7.703000000    -4.476000000     4.897000000
O     6.558000000    -1.791000000    -1.222000000
H     6.073000000    -2.554000000    -0.908000000
H     6.605000000    -1.209000000    -0.463000000
O     7.255000000    -7.630000000     1.209000000
H     6.599000000    -7.231000000     0.636000000
H     6.891000000    -7.537000000     2.089000000
O     4.132000000    -4.856000000     4.250000000
H     4.361000000    -4.240000000     4.947000000
H     4.474000000    -4.452000000     3.452000000
O     4.232000000    -7.382000000     2.542000000
H     4.341000000    -7.240000000     1.602000000
H     3.693000000    -6.647000000     2.834000000
O     6.942000000     0.496000000     4.706000000
H     7.860000000     0.316000000     4.503000000
H     6.458000000    -0.200000000     4.260000000
O     8.087000000     1.198000000    -0.727000000
H     7.479000000     0.609000000    -0.280000000
H     8.954000000     0.895000000    -0.459000000
O     3.650000000     0.870000000     0.676000000
H     3.344000000    -0.014000000     0.878000000
H     3.363000000     1.022000000    -0.225000000
O     5.659000000    -3.999000000    -4.975000000
H     5.209000000    -4.060000000    -4.133000000
H     5.801000000    -4.909000000    -5.237000000
O     6.530000000    -0.127000000     0.925000000
H     6.360000000    -0.757000000     1.625000000
H     5.688000000     0.305000000     0.781000000
O     9.680000000    -2.152000000    -0.527000000
H    10.425000000    -2.524000000    -1.000000000
H     8.912000000    -2.537000000    -0.948000000
O     7.044000000    -4.427000000     2.069000000
H     6.253000000    -3.908000000     1.929000000
H     7.485000000    -4.425000000     1.219000000
O     7.374000000    -2.487000000    -3.701000000
H     6.791000000    -3.137000000    -4.092000000
H     7.134000000    -2.477000000    -2.774000000
O     4.752000000    -6.666000000     0.033000000
H     4.291000000    -6.808000000    -0.793000000
H     4.735000000    -5.717000000     0.156000000
O     6.976000000    -5.606000000    -1.976000000
H     6.156000000    -5.263000000    -2.332000000
H     6.952000000    -6.541000000    -2.177000000
O     4.382000000    -4.305000000    -2.741000000
H     4.426000000    -4.130000000    -1.801000000
H     3.954000000    -5.159000000    -2.805000000
O     4.129000000    -7.001000000    -2.529000000
H     5.017000000    -7.334000000    -2.664000000
H     3.561000000    -7.745000000    -2.733000000
