215
-1454.94145
C    -0.204000000     1.932000000     4.844000000
H    -1.055000000     1.281000000     5.024000000
C    -0.156000000     2.840000000     3.845000000
C     1.059000000     3.532000000     3.570000000
H     1.096000000     4.154000000     2.680000000
C    -1.347000000     2.888000000     2.903000000
O    -2.530000000     2.234000000     3.521000000
H    -1.005000000     2.212000000     2.106000000
O    -1.598000000     4.191000000     2.454000000
C    -1.863000000     4.329000000     1.144000000
C    -0.783000000     4.559000000     0.305000000
H     0.021000000     5.043000000     0.854000000
C    -0.835000000     4.390000000    -1.116000000
O     0.271000000     4.513000000    -1.913000000
C    -2.064000000     3.993000000    -1.674000000
C    -2.191000000     3.895000000    -3.211000000
H    -3.195000000     4.199000000    -3.512000000
C    -1.790000000     2.530000000    -3.725000000
C    -2.743000000     1.490000000    -3.912000000
H    -3.787000000     1.643000000    -3.650000000
H    -1.576000000     4.698000000    -3.623000000
C    -3.160000000     3.682000000    -0.805000000
H    -4.053000000     3.183000000    -1.172000000
C    -3.078000000     3.863000000     0.592000000
C    -4.244000000     3.416000000     1.510000000
H    -5.236000000     3.702000000     1.155000000
H    -4.300000000     3.956000000     2.457000000
C    -4.085000000     1.889000000     1.756000000
C    -4.797000000     0.941000000     0.976000000
H    -5.352000000     1.174000000     0.071000000
C    -3.369000000     1.414000000     2.811000000
C    -3.274000000    -0.001000000     3.051000000
H    -2.572000000    -0.343000000     3.807000000
C    -3.878000000    -0.906000000     2.286000000
O    -3.643000000    -2.188000000     2.558000000
C    -2.661000000    -2.849000000     1.768000000
C    -1.792000000    -3.763000000     2.627000000
C    -1.081000000    -4.809000000     2.025000000
H    -1.394000000    -5.028000000     1.008000000
C    -1.516000000    -3.464000000     3.944000000
H    -1.879000000    -2.571000000     4.446000000
O    -3.416000000    -3.489000000     0.686000000
H    -2.046000000    -2.092000000     1.260000000
C    -4.679000000    -0.471000000     1.230000000
C    -5.395000000    -1.402000000     0.348000000
H    -6.241000000    -0.900000000    -0.126000000
H    -5.685000000    -2.256000000     0.964000000
C    -4.442000000    -1.876000000    -0.771000000
C    -4.393000000    -1.329000000    -2.035000000
H    -5.159000000    -0.597000000    -2.279000000
C    -3.434000000    -2.868000000    -0.558000000
C    -2.650000000    -3.370000000    -1.563000000
H    -1.934000000    -4.154000000    -1.329000000
C    -2.547000000    -2.761000000    -2.799000000
O    -1.460000000    -3.118000000    -3.613000000
C    -0.380000000    -2.131000000    -3.745000000
C     0.891000000    -2.922000000    -3.722000000
C     1.144000000    -3.945000000    -2.803000000
H     0.383000000    -4.226000000    -2.080000000
C     1.922000000    -2.532000000    -4.600000000
H     1.896000000    -1.686000000    -5.282000000
O    -0.641000000    -1.282000000    -4.829000000
H    -0.406000000    -1.619000000    -2.771000000
C    -3.437000000    -1.659000000    -2.973000000
C    -3.369000000    -0.896000000    -4.318000000
H    -4.331000000    -0.525000000    -4.679000000
H    -3.115000000    -1.595000000    -5.118000000
C    -2.393000000     0.236000000    -4.320000000
C    -1.056000000    -0.007000000    -4.606000000
C    -0.115000000     0.988000000    -4.549000000
H     0.923000000     0.797000000    -4.809000000
C    -0.442000000     2.269000000    -4.089000000
O     0.572000000     3.129000000    -3.769000000
C     0.905000000     3.320000000    -2.359000000
H     0.551000000     2.525000000    -1.687000000
C     2.404000000     3.437000000    -2.230000000
C     3.023000000     4.342000000    -1.392000000
H     2.490000000     5.178000000    -0.946000000
C     3.163000000     2.381000000    -2.757000000
H     2.595000000     1.585000000    -3.232000000
C     4.496000000     2.296000000    -2.555000000
O     5.233000000     1.298000000    -3.066000000
C     5.100000000     3.222000000    -1.686000000
H     6.167000000     3.216000000    -1.482000000
C     4.379000000     4.191000000    -1.049000000
O     4.928000000     5.158000000    -0.214000000
C     4.291000000     5.525000000     0.999000000
C     4.117000000     4.648000000     2.041000000
H     4.459000000     3.623000000     1.925000000
C     3.679000000     6.747000000     1.022000000
H     3.889000000     7.440000000     0.212000000
C     2.960000000     7.196000000     2.125000000
H     2.627000000     8.230000000     2.176000000
C     2.908000000     6.291000000     3.206000000
H     2.308000000     6.557000000     4.073000000
C     3.476000000     5.015000000     3.216000000
O     3.301000000     4.152000000     4.283000000
C     2.109000000     3.485000000     4.500000000
C     2.010000000     2.536000000     5.502000000
H     2.785000000     2.387000000     6.251000000
C     0.904000000     1.714000000     5.653000000
O     1.039000000     0.789000000     6.705000000
C     0.168000000    -0.263000000     6.858000000
C     0.441000000    -1.484000000     6.158000000
H     1.295000000    -1.575000000     5.492000000
C    -0.988000000    -0.203000000     7.734000000
H    -1.259000000     0.693000000     8.287000000
C    -1.709000000    -1.336000000     7.997000000
H    -2.566000000    -1.256000000     8.661000000
C    -1.396000000    -2.517000000     7.364000000
H    -1.952000000    -3.428000000     7.571000000
C    -0.382000000    -2.572000000     6.436000000
O    -0.038000000    -3.737000000     5.886000000
C    -0.474000000    -4.112000000     4.575000000
C     0.090000000    -5.225000000     4.038000000
H     0.863000000    -5.829000000     4.507000000
C    -0.248000000    -5.613000000     2.742000000
O     0.243000000    -6.765000000     2.078000000
C     0.404000000    -6.928000000     0.737000000
C     1.379000000    -6.205000000     0.152000000
H     1.997000000    -5.434000000     0.605000000
C    -0.376000000    -7.774000000    -0.059000000
H    -1.184000000    -8.354000000     0.380000000
C    -0.068000000    -7.985000000    -1.393000000
H    -0.672000000    -8.740000000    -1.891000000
C     0.927000000    -7.259000000    -1.978000000
H     0.981000000    -7.363000000    -3.058000000
C     1.601000000    -6.280000000    -1.223000000
O     2.621000000    -5.572000000    -1.808000000
C     2.377000000    -4.609000000    -2.776000000
C     3.381000000    -4.263000000    -3.645000000
H     4.354000000    -4.727000000    -3.506000000
C     3.137000000    -3.204000000    -4.505000000
O     4.154000000    -2.737000000    -5.386000000
C     4.461000000    -1.369000000    -5.414000000
C     4.368000000    -0.731000000    -6.642000000
H     4.228000000    -1.294000000    -7.561000000
C     4.690000000     0.641000000    -6.634000000
H     4.761000000     1.198000000    -7.565000000
C     5.092000000     1.272000000    -5.403000000
H     5.528000000     2.267000000    -5.416000000
C     4.995000000     0.595000000    -4.228000000
C     4.751000000    -0.724000000    -4.234000000
H     4.746000000    -1.280000000    -3.300000000
C     2.473000000    -1.226000000    -0.197000000
H     3.282000000    -1.227000000    -0.922000000
C     1.198000000    -0.700000000    -0.550000000
H     1.025000000    -0.342000000    -1.561000000
C     0.142000000    -0.646000000     0.341000000
H    -0.825000000    -0.215000000    -0.021000000
C     0.369000000    -1.128000000     1.648000000
H    -0.458000000    -1.271000000     2.339000000
C     1.603000000    -1.644000000     1.959000000
H     1.558000000    -2.139000000     2.925000000
C     2.602000000    -1.835000000     1.073000000
C     3.860000000    -2.571000000     1.461000000
O     4.206000000    -2.763000000     2.599000000
O     4.413000000    -3.287000000     0.598000000
O     4.195000000     0.312000000     4.116000000
H     4.527000000     0.864000000     4.824000000
H     3.944000000    -0.505000000     4.546000000
O     5.806000000    -3.735000000    -1.828000000
H     5.219000000    -3.503000000    -1.108000000
H     6.137000000    -4.603000000    -1.596000000
O     3.998000000    -1.731000000     6.517000000
H     4.414000000    -2.429000000     7.024000000
H     3.331000000    -2.179000000     5.996000000
O     5.952000000    -6.183000000     5.510000000
H     5.273000000    -6.646000000     6.001000000
H     5.541000000    -5.976000000     4.671000000
O     4.961000000    -5.294000000     3.005000000
H     4.842000000    -4.434000000     2.602000000
H     4.291000000    -5.844000000     2.598000000
O     2.914000000    -3.480000000     4.902000000
H     2.250000000    -4.159000000     4.783000000
H     3.357000000    -3.427000000     4.055000000
O     5.699000000    -3.614000000     7.333000000
H     6.460000000    -3.788000000     6.779000000
H     5.009000000    -4.172000000     6.975000000
O     5.714000000    -8.191000000    -2.085000000
H     5.564000000    -7.474000000    -1.469000000
H     4.963000000    -8.158000000    -2.678000000
O     5.589000000     0.587000000    -0.066000000
H     4.833000000     1.004000000    -0.480000000
H     5.580000000     0.916000000     0.833000000
O     6.573000000    -2.957000000     3.736000000
H     5.676000000    -2.748000000     3.475000000
H     6.539000000    -3.879000000     3.993000000
O     2.773000000     1.253000000     1.796000000
H     2.938000000     0.913000000     2.675000000
H     2.488000000     0.489000000     1.294000000
O     7.275000000    -0.858000000    -1.343000000
H     7.558000000    -1.576000000    -0.778000000
H     6.651000000    -0.365000000    -0.810000000
O     7.010000000    -2.693000000    -3.967000000
H     6.773000000    -2.645000000    -3.040000000
H     6.403000000    -3.335000000    -4.336000000
O     9.151000000     0.647000000     0.980000000
H     8.605000000     0.081000000     0.434000000
H    10.045000000     0.348000000     0.816000000
O     7.932000000    -0.399000000     4.016000000
H     8.633000000    -1.013000000     3.797000000
H     7.145000000    -0.943000000     4.069000000
O     6.162000000     1.575000000     2.426000000
H     6.850000000     0.921000000     2.551000000
H     5.439000000     1.271000000     2.975000000
O     7.040000000    -2.598000000     0.921000000
H     6.189000000    -2.831000000     0.550000000
H     6.907000000    -2.637000000     1.868000000
O     9.712000000    -2.623000000     1.445000000
H    10.191000000    -1.983000000     0.918000000
H     8.802000000    -2.530000000     1.165000000
O     5.279000000    -5.964000000    -0.447000000
H     5.442000000    -5.431000000     0.331000000
H     4.383000000    -5.747000000    -0.703000000
