215
-1452.65878
C    -1.537000000    -3.309000000    -3.967000000
H    -1.886000000    -2.694000000    -4.793000000
C    -2.060000000    -3.157000000    -2.750000000
C    -1.853000000    -4.101000000    -1.805000000
H    -2.348000000    -3.927000000    -0.853000000
C    -2.786000000    -1.852000000    -2.356000000
O    -2.928000000    -1.095000000    -3.543000000
H    -2.209000000    -1.317000000    -1.587000000
O    -4.178000000    -2.079000000    -1.898000000
C    -4.420000000    -1.196000000    -0.919000000
C    -4.274000000    -1.679000000     0.366000000
H    -4.122000000    -2.742000000     0.531000000
C    -4.489000000    -0.813000000     1.491000000
O    -4.117000000    -1.281000000     2.732000000
C    -4.651000000     0.568000000     1.248000000
C    -4.760000000     1.517000000     2.426000000
H    -5.505000000     2.255000000     2.121000000
C    -3.326000000     2.091000000     2.806000000
C    -2.884000000     3.319000000     2.265000000
H    -3.574000000     3.945000000     1.706000000
H    -5.144000000     1.017000000     3.317000000
C    -4.782000000     1.021000000    -0.066000000
H    -4.945000000     2.083000000    -0.227000000
C    -4.766000000     0.100000000    -1.111000000
C    -4.981000000     0.576000000    -2.529000000
H    -5.685000000     1.410000000    -2.501000000
H    -5.483000000    -0.118000000    -3.207000000
C    -3.579000000     1.141000000    -3.027000000
C    -3.208000000     2.474000000    -2.888000000
H    -3.926000000     3.161000000    -2.447000000
C    -2.672000000     0.205000000    -3.536000000
C    -1.418000000     0.679000000    -3.976000000
H    -0.770000000    -0.035000000    -4.478000000
C    -1.043000000     2.034000000    -3.882000000
O     0.213000000     2.403000000    -4.342000000
C     1.219000000     2.564000000    -3.335000000
C     2.512000000     1.783000000    -3.705000000
C     3.764000000     2.083000000    -3.129000000
H     3.980000000     3.021000000    -2.625000000
C     2.406000000     0.630000000    -4.390000000
H     1.458000000     0.315000000    -4.820000000
O     1.406000000     3.900000000    -2.895000000
H     0.761000000     2.116000000    -2.441000000
C    -1.922000000     2.913000000    -3.215000000
C    -1.538000000     4.364000000    -2.912000000
H    -2.371000000     5.070000000    -2.892000000
H    -0.976000000     4.715000000    -3.781000000
C    -0.623000000     4.485000000    -1.682000000
C    -1.236000000     4.783000000    -0.448000000
H    -2.259000000     5.140000000    -0.533000000
C     0.751000000     4.380000000    -1.746000000
C     1.507000000     4.392000000    -0.585000000
H     2.576000000     4.195000000    -0.576000000
C     0.855000000     4.569000000     0.609000000
O     1.556000000     4.469000000     1.752000000
C     1.457000000     3.257000000     2.485000000
C     2.711000000     2.667000000     2.988000000
C     3.889000000     2.895000000     2.187000000
H     3.803000000     3.572000000     1.341000000
C     2.796000000     1.875000000     4.107000000
H     1.906000000     1.571000000     4.653000000
O     0.581000000     3.375000000     3.576000000
H     0.932000000     2.572000000     1.803000000
C    -0.529000000     4.821000000     0.683000000
C    -1.187000000     5.117000000     2.036000000
H    -2.030000000     5.799000000     1.903000000
H    -0.469000000     5.638000000     2.672000000
C    -1.570000000     3.812000000     2.592000000
C    -0.773000000     3.055000000     3.384000000
C    -1.123000000     1.800000000     3.850000000
H    -0.412000000     1.119000000     4.312000000
C    -2.428000000     1.373000000     3.648000000
O    -2.721000000     0.147000000     4.122000000
C    -2.761000000    -0.942000000     3.124000000
H    -2.247000000    -0.668000000     2.191000000
C    -2.110000000    -2.156000000     3.649000000
C    -2.661000000    -3.471000000     3.373000000
H    -3.545000000    -3.580000000     2.750000000
C    -0.899000000    -2.109000000     4.381000000
H    -0.500000000    -1.108000000     4.524000000
C    -0.325000000    -3.241000000     4.920000000
O     0.901000000    -3.242000000     5.592000000
C    -0.901000000    -4.512000000     4.582000000
H    -0.373000000    -5.387000000     4.951000000
C    -2.037000000    -4.630000000     3.807000000
O    -2.575000000    -5.834000000     3.468000000
C    -2.649000000    -6.164000000     2.129000000
C    -1.685000000    -5.805000000     1.198000000
H    -0.740000000    -5.359000000     1.497000000
C    -3.861000000    -6.684000000     1.656000000
H    -4.718000000    -6.811000000     2.313000000
C    -3.969000000    -7.096000000     0.374000000
H    -4.935000000    -7.482000000     0.061000000
C    -2.917000000    -7.013000000    -0.487000000
H    -2.983000000    -7.355000000    -1.517000000
C    -1.756000000    -6.335000000    -0.074000000
O    -0.723000000    -6.083000000    -1.005000000
C    -1.099000000    -5.213000000    -2.041000000
C    -0.659000000    -5.522000000    -3.367000000
H    -0.117000000    -6.425000000    -3.639000000
C    -0.839000000    -4.516000000    -4.286000000
O    -0.340000000    -4.635000000    -5.602000000
C     0.417000000    -3.579000000    -6.104000000
C     1.520000000    -3.001000000    -5.378000000
H     1.828000000    -3.350000000    -4.396000000
C     0.093000000    -2.951000000    -7.292000000
H    -0.655000000    -3.337000000    -7.980000000
C     0.734000000    -1.784000000    -7.692000000
H     0.387000000    -1.243000000    -8.568000000
C     1.793000000    -1.256000000    -6.955000000
H     2.274000000    -0.313000000    -7.204000000
C     2.206000000    -1.871000000    -5.842000000
O     3.322000000    -1.479000000    -5.163000000
C     3.472000000    -0.278000000    -4.472000000
C     4.624000000    -0.013000000    -3.798000000
H     5.363000000    -0.808000000    -3.735000000
C     4.798000000     1.201000000    -3.186000000
O     6.016000000     1.560000000    -2.620000000
C     6.245000000     2.515000000    -1.640000000
C     5.913000000     2.250000000    -0.336000000
H     5.534000000     1.251000000    -0.137000000
C     7.087000000     3.570000000    -2.019000000
H     7.362000000     3.696000000    -3.063000000
C     7.499000000     4.469000000    -0.994000000
H     8.099000000     5.332000000    -1.271000000
C     7.175000000     4.177000000     0.350000000
H     7.537000000     4.800000000     1.164000000
C     6.431000000     3.048000000     0.746000000
O     6.321000000     2.637000000     2.053000000
C     5.074000000     2.377000000     2.642000000
C     5.122000000     1.572000000     3.749000000
H     6.063000000     1.073000000     3.965000000
C     4.005000000     1.285000000     4.494000000
O     4.108000000     0.410000000     5.553000000
C     2.937000000    -0.141000000     6.160000000
C     2.309000000     0.384000000     7.279000000
H     2.695000000     1.342000000     7.618000000
C     1.248000000    -0.305000000     7.837000000
H     0.654000000     0.071000000     8.667000000
C     0.891000000    -1.620000000     7.360000000
H     0.060000000    -2.137000000     7.833000000
C     1.466000000    -2.111000000     6.221000000
C     2.471000000    -1.333000000     5.592000000
H     2.975000000    -1.681000000     4.694000000
C     0.721000000    -2.362000000     1.064000000
H     0.836000000    -2.918000000     1.991000000
C     0.228000000    -1.080000000     1.139000000
H    -0.010000000    -0.616000000     2.092000000
C     0.100000000    -0.269000000     0.009000000
H    -0.375000000     0.697000000     0.122000000
C     0.434000000    -0.792000000    -1.211000000
H     0.250000000    -0.221000000    -2.118000000
C     0.992000000    -2.053000000    -1.325000000
H     1.287000000    -2.322000000    -2.336000000
C     1.243000000    -2.839000000    -0.156000000
C     2.003000000    -4.104000000    -0.212000000
O     2.469000000    -4.425000000    -1.269000000
O     2.360000000    -4.698000000     0.785000000
O     6.426000000    -5.324000000     3.182000000
H     5.835000000    -4.670000000     2.809000000
H     6.394000000    -5.166000000     4.125000000
O     3.842000000    -0.917000000     0.195000000
H     4.091000000    -1.293000000    -0.649000000
H     2.889000000    -0.999000000     0.222000000
O     2.792000000    -5.618000000     4.921000000
H     3.708000000    -5.351000000     5.006000000
H     2.307000000    -4.981000000     5.446000000
O     6.619000000    -9.435000000     0.102000000
H     6.125000000   -10.250000000     0.009000000
H     5.956000000    -8.776000000     0.309000000
O     4.785000000    -3.937000000     1.584000000
H     3.863000000    -3.842000000     1.343000000
H     5.123000000    -4.598000000     0.980000000
O     0.229000000    -9.384000000    -0.487000000
H    -0.609000000    -9.618000000    -0.090000000
H     0.054000000    -9.374000000    -1.428000000
O     5.668000000    -1.472000000     2.233000000
H     5.155000000    -0.876000000     1.688000000
H     5.439000000    -2.345000000     1.913000000
O     4.298000000    -3.710000000    -3.059000000
H     3.919000000    -3.269000000    -3.819000000
H     3.543000000    -3.977000000    -2.535000000
O    -0.884000000    -8.895000000    -2.899000000
H    -1.512000000    -8.185000000    -3.038000000
H    -1.412000000    -9.692000000    -2.934000000
O     6.620000000    -2.748000000    -1.652000000
H     5.914000000    -3.279000000    -2.020000000
H     7.275000000    -3.384000000    -1.367000000
O     2.899000000    -9.769000000    -0.225000000
H     2.897000000    -8.907000000     0.190000000
H     1.974000000    -9.976000000    -0.354000000
O     2.371000000    -6.563000000    -2.718000000
H     2.275000000    -5.735000000    -2.248000000
H     1.844000000    -7.186000000    -2.217000000
O     1.341000000    -6.330000000     2.653000000
H     1.871000000    -6.088000000     3.413000000
H     1.750000000    -5.870000000     1.920000000
O     0.680000000    -9.029000000     2.111000000
H     0.953000000    -8.115000000     2.188000000
H     0.655000000    -9.193000000     1.169000000
O     4.609000000    -8.094000000     3.440000000
H     4.287000000    -8.995000000     3.463000000
H     5.472000000    -8.137000000     3.853000000
O     3.165000000    -7.162000000     0.549000000
H     3.332000000    -7.082000000     1.488000000
H     3.036000000    -6.261000000     0.251000000
O     5.324000000    -5.605000000    -1.118000000
H     4.467000000    -5.437000000    -1.509000000
H     5.737000000    -6.236000000    -1.708000000
O     3.037000000    -5.910000000    -5.392000000
H     3.931000000    -6.048000000    -5.078000000
H     2.487000000    -6.371000000    -4.759000000
O     4.836000000    -8.405000000    -2.307000000
H     4.198000000    -7.780000000    -2.653000000
H     4.329000000    -8.964000000    -1.719000000
