215
-1461.58315
C    -0.495000000     1.827000000     4.912000000
H    -1.464000000     1.347000000     5.026000000
C    -0.246000000     2.669000000     3.817000000
C     1.016000000     3.205000000     3.608000000
H     1.181000000     3.923000000     2.809000000
C    -1.296000000     2.854000000     2.738000000
O    -2.636000000     2.573000000     3.175000000
H    -1.061000000     2.112000000     1.960000000
O    -1.218000000     4.161000000     2.173000000
C    -1.425000000     4.400000000     0.781000000
C    -0.254000000     4.567000000     0.039000000
H     0.694000000     4.716000000     0.550000000
C    -0.344000000     4.578000000    -1.328000000
O     0.870000000     4.627000000    -2.122000000
C    -1.566000000     4.350000000    -2.022000000
C    -1.687000000     4.069000000    -3.527000000
H    -2.722000000     4.331000000    -3.753000000
C    -1.379000000     2.642000000    -3.909000000
C    -2.413000000     1.708000000    -4.022000000
H    -3.451000000     2.015000000    -3.920000000
H    -1.051000000     4.771000000    -4.070000000
C    -2.750000000     4.165000000    -1.249000000
H    -3.624000000     3.803000000    -1.784000000
C    -2.659000000     4.090000000     0.154000000
C    -3.955000000     3.735000000     0.886000000
H    -4.766000000     4.040000000     0.221000000
H    -4.071000000     4.268000000     1.832000000
C    -4.021000000     2.242000000     1.255000000
C    -4.762000000     1.317000000     0.448000000
H    -5.251000000     1.704000000    -0.443000000
C    -3.319000000     1.735000000     2.368000000
C    -3.376000000     0.407000000     2.711000000
H    -2.926000000    -0.079000000     3.573000000
C    -4.160000000    -0.493000000     1.947000000
O    -4.034000000    -1.857000000     2.211000000
C    -3.017000000    -2.621000000     1.497000000
C    -2.168000000    -3.428000000     2.449000000
C    -1.228000000    -4.297000000     1.875000000
H    -1.198000000    -4.418000000     0.795000000
C    -2.311000000    -3.306000000     3.823000000
H    -2.951000000    -2.600000000     4.346000000
O    -3.647000000    -3.380000000     0.473000000
H    -2.285000000    -1.938000000     1.044000000
C    -4.824000000    -0.014000000     0.815000000
C    -5.460000000    -1.058000000    -0.135000000
H    -6.357000000    -0.692000000    -0.640000000
H    -5.813000000    -1.895000000     0.470000000
C    -4.477000000    -1.722000000    -1.161000000
C    -4.388000000    -1.139000000    -2.367000000
H    -4.902000000    -0.194000000    -2.527000000
C    -3.740000000    -2.867000000    -0.853000000
C    -2.882000000    -3.381000000    -1.829000000
H    -2.159000000    -4.132000000    -1.519000000
C    -2.682000000    -2.729000000    -2.997000000
O    -1.644000000    -3.091000000    -3.902000000
C    -0.465000000    -2.401000000    -3.769000000
C     0.820000000    -3.277000000    -3.663000000
C     0.786000000    -4.491000000    -3.001000000
H    -0.169000000    -4.982000000    -2.830000000
C     2.066000000    -2.653000000    -3.805000000
H     2.129000000    -1.649000000    -4.217000000
O    -0.314000000    -1.361000000    -4.740000000
H    -0.400000000    -1.814000000    -2.841000000
C    -3.458000000    -1.569000000    -3.366000000
C    -3.237000000    -0.648000000    -4.576000000
H    -4.130000000    -0.050000000    -4.772000000
H    -3.060000000    -1.280000000    -5.449000000
C    -2.098000000     0.320000000    -4.294000000
C    -0.723000000    -0.051000000    -4.457000000
C     0.313000000     0.866000000    -4.228000000
H     1.332000000     0.497000000    -4.318000000
C     0.019000000     2.214000000    -4.024000000
O     1.095000000     2.997000000    -3.740000000
C     1.433000000     3.383000000    -2.418000000
H     1.080000000     2.578000000    -1.757000000
C     2.987000000     3.366000000    -2.277000000
C     3.540000000     4.156000000    -1.278000000
H     2.852000000     4.648000000    -0.596000000
C     3.825000000     2.554000000    -3.094000000
H     3.328000000     1.953000000    -3.852000000
C     5.191000000     2.669000000    -2.868000000
O     6.058000000     1.790000000    -3.590000000
C     5.740000000     3.547000000    -1.906000000
H     6.802000000     3.749000000    -1.796000000
C     4.894000000     4.350000000    -1.131000000
O     5.510000000     4.889000000    -0.019000000
C     4.807000000     5.128000000     1.187000000
C     4.451000000     4.145000000     2.099000000
H     4.742000000     3.127000000     1.854000000
C     4.346000000     6.426000000     1.531000000
H     4.591000000     7.237000000     0.849000000
C     3.782000000     6.732000000     2.749000000
H     3.504000000     7.721000000     3.106000000
C     3.559000000     5.703000000     3.624000000
H     3.104000000     5.924000000     4.586000000
C     3.755000000     4.360000000     3.278000000
O     3.377000000     3.266000000     4.014000000
C     2.076000000     2.838000000     4.414000000
C     1.881000000     1.995000000     5.534000000
H     2.740000000     1.721000000     6.140000000
C     0.560000000     1.624000000     5.839000000
O     0.296000000     0.771000000     6.878000000
C    -0.675000000    -0.171000000     6.933000000
C    -0.545000000    -1.442000000     6.487000000
H     0.375000000    -1.726000000     5.983000000
C    -2.023000000     0.197000000     7.288000000
H    -2.229000000     1.251000000     7.455000000
C    -3.072000000    -0.712000000     7.307000000
H    -4.050000000    -0.431000000     7.691000000
C    -2.858000000    -2.063000000     7.003000000
H    -3.626000000    -2.829000000     7.079000000
C    -1.585000000    -2.406000000     6.559000000
O    -1.398000000    -3.663000000     6.016000000
C    -1.387000000    -3.926000000     4.637000000
C    -0.461000000    -4.819000000     4.109000000
H     0.284000000    -5.243000000     4.777000000
C    -0.437000000    -5.037000000     2.759000000
O     0.435000000    -5.968000000     2.307000000
C     0.278000000    -6.571000000     1.083000000
C     1.179000000    -6.202000000     0.104000000
H     1.972000000    -5.491000000     0.320000000
C    -0.649000000    -7.606000000     0.923000000
H    -1.367000000    -7.780000000     1.720000000
C    -0.623000000    -8.330000000    -0.269000000
H    -1.201000000    -9.246000000    -0.362000000
C     0.178000000    -7.841000000    -1.311000000
H     0.123000000    -8.317000000    -2.287000000
C     1.091000000    -6.782000000    -1.145000000
O     1.995000000    -6.439000000    -2.135000000
C     1.980000000    -5.156000000    -2.681000000
C     3.208000000    -4.624000000    -2.923000000
H     4.113000000    -5.136000000    -2.605000000
C     3.263000000    -3.334000000    -3.422000000
O     4.452000000    -2.686000000    -3.542000000
C     4.696000000    -1.510000000    -4.205000000
C     4.528000000    -1.474000000    -5.616000000
H     4.103000000    -2.304000000    -6.175000000
C     5.011000000    -0.356000000    -6.295000000
H     4.957000000    -0.420000000    -7.379000000
C     5.436000000     0.775000000    -5.574000000
H     5.525000000     1.733000000    -6.081000000
C     5.568000000     0.669000000    -4.178000000
C     5.285000000    -0.476000000    -3.529000000
H     5.637000000    -0.685000000    -2.522000000
C     2.116000000    -2.886000000     0.897000000
H     2.840000000    -3.592000000     0.497000000
C     1.466000000    -2.019000000     0.028000000
H     1.625000000    -2.102000000    -1.044000000
C     0.480000000    -1.112000000     0.465000000
H    -0.111000000    -0.486000000    -0.184000000
C     0.209000000    -1.084000000     1.807000000
H    -0.594000000    -0.396000000     2.059000000
C     0.945000000    -1.863000000     2.720000000
H     0.684000000    -1.756000000     3.770000000
C     1.872000000    -2.776000000     2.285000000
C     2.681000000    -3.658000000     3.220000000
O     2.692000000    -3.440000000     4.384000000
O     3.629000000    -4.269000000     2.763000000
O     3.891000000     0.044000000    -0.190000000
H     3.712000000    -0.216000000     0.713000000
H     3.395000000    -0.579000000    -0.721000000
O     2.264000000    -6.769000000     4.729000000
H     3.015000000    -6.176000000     4.726000000
H     2.273000000    -7.171000000     3.861000000
O     7.561000000    -1.535000000     0.776000000
H     7.384000000    -0.918000000     0.065000000
H     6.737000000    -1.585000000     1.260000000
O     1.792000000    -4.472000000     6.725000000
H     1.935000000    -3.953000000     5.934000000
H     2.296000000    -5.273000000     6.581000000
O     4.816000000    -5.179000000     4.998000000
H     5.588000000    -5.594000000     4.614000000
H     4.408000000    -4.712000000     4.269000000
O     4.375000000    -6.139000000     0.921000000
H     4.290000000    -5.414000000     1.540000000
H     3.923000000    -6.870000000     1.344000000
O     3.286000000    -8.048000000     2.566000000
H     2.667000000    -8.320000000     1.888000000
H     3.868000000    -8.800000000     2.675000000
O     2.868000000    -1.893000000     8.002000000
H     2.328000000    -2.640000000     7.743000000
H     3.554000000    -2.272000000     8.551000000
O     3.170000000    -0.787000000     5.149000000
H     2.887000000    -1.617000000     4.766000000
H     3.111000000    -0.926000000     6.094000000
O     0.047000000    -8.497000000     5.675000000
H     0.162000000    -8.176000000     6.569000000
H     0.480000000    -7.841000000     5.128000000
O     0.452000000    -4.660000000     9.063000000
H     0.885000000    -4.654000000     8.210000000
H    -0.194000000    -3.956000000     9.009000000
O     6.024000000    -6.961000000     7.499000000
H     6.956000000    -7.125000000     7.356000000
H     5.737000000    -6.503000000     6.709000000
O     5.383000000    -2.075000000     2.295000000
H     4.906000000    -2.894000000     2.433000000
H     4.743000000    -1.390000000     2.487000000
O     7.518000000    -5.719000000     4.440000000
H     7.876000000    -5.497000000     3.580000000
H     8.259000000    -6.087000000     4.920000000
O     6.107000000    -6.160000000    -1.216000000
H     5.619000000    -6.302000000    -0.405000000
H     5.804000000    -6.853000000    -1.802000000
O     7.425000000    -5.683000000     1.562000000
H     7.819000000    -4.961000000     1.073000000
H     6.485000000    -5.597000000     1.399000000
O     5.908000000    -2.519000000     5.353000000
H     6.080000000    -3.460000000     5.390000000
H     4.956000000    -2.452000000     5.278000000
O     3.842000000     0.294000000     2.669000000
H     3.302000000    -0.026000000     3.391000000
H     3.761000000     1.247000000     2.714000000
O     7.131000000     0.025000000     4.208000000
H     6.457000000    -0.509000000     3.786000000
H     6.834000000     0.112000000     5.114000000
