215
-1442.85750
C    -1.902000000    -3.348000000    -3.429000000
H    -1.495000000    -2.547000000    -4.039000000
C    -2.857000000    -3.178000000    -2.528000000
C    -3.361000000    -4.293000000    -1.806000000
H    -4.018000000    -4.073000000    -0.968000000
C    -3.377000000    -1.725000000    -2.281000000
O    -3.627000000    -0.894000000    -3.500000000
H    -2.614000000    -1.267000000    -1.634000000
O    -4.538000000    -1.821000000    -1.452000000
C    -4.622000000    -1.033000000    -0.342000000
C    -4.226000000    -1.518000000     0.886000000
H    -3.806000000    -2.516000000     0.980000000
C    -4.184000000    -0.724000000     2.024000000
O    -3.608000000    -1.316000000     3.166000000
C    -4.463000000     0.664000000     1.918000000
C    -4.332000000     1.574000000     3.088000000
H    -4.897000000     2.496000000     2.938000000
C    -2.934000000     2.015000000     3.192000000
C    -2.613000000     3.168000000     2.486000000
H    -3.347000000     3.729000000     1.914000000
H    -4.654000000     1.092000000     4.013000000
C    -4.902000000     1.143000000     0.686000000
H    -5.248000000     2.157000000     0.497000000
C    -4.873000000     0.321000000    -0.407000000
C    -5.200000000     0.933000000    -1.792000000
H    -5.870000000     1.794000000    -1.748000000
H    -5.773000000     0.232000000    -2.403000000
C    -3.957000000     1.318000000    -2.477000000
C    -3.464000000     2.574000000    -2.384000000
H    -3.967000000     3.358000000    -1.824000000
C    -3.287000000     0.402000000    -3.348000000
C    -2.106000000     0.723000000    -3.998000000
H    -1.807000000    -0.035000000    -4.718000000
C    -1.675000000     2.051000000    -3.886000000
O    -0.525000000     2.358000000    -4.606000000
C     0.620000000     2.592000000    -3.667000000
C     1.901000000     1.897000000    -4.050000000
C     3.134000000     2.500000000    -3.833000000
H     3.185000000     3.440000000    -3.289000000
C     1.782000000     0.599000000    -4.538000000
H     0.810000000     0.123000000    -4.634000000
O     0.794000000     4.038000000    -3.321000000
H     0.277000000     2.175000000    -2.708000000
C    -2.408000000     3.027000000    -3.133000000
C    -2.009000000     4.487000000    -2.867000000
H    -2.896000000     5.082000000    -2.637000000
H    -1.626000000     4.925000000    -3.791000000
C    -0.962000000     4.609000000    -1.749000000
C    -1.331000000     5.005000000    -0.466000000
H    -2.372000000     5.171000000    -0.200000000
C     0.381000000     4.363000000    -2.067000000
C     1.304000000     4.372000000    -1.024000000
H     2.345000000     4.157000000    -1.250000000
C     0.900000000     4.577000000     0.287000000
O     1.893000000     4.277000000     1.227000000
C     1.708000000     2.943000000     1.935000000
C     3.078000000     2.238000000     2.213000000
C     4.023000000     2.271000000     1.190000000
H     3.801000000     2.688000000     0.211000000
C     3.284000000     1.576000000     3.406000000
H     2.454000000     1.540000000     4.107000000
O     0.934000000     3.197000000     3.121000000
H     1.171000000     2.279000000     1.241000000
C    -0.430000000     4.893000000     0.557000000
C    -0.979000000     5.045000000     1.977000000
H    -1.830000000     5.729000000     1.999000000
H    -0.143000000     5.530000000     2.484000000
C    -1.336000000     3.663000000     2.505000000
C    -0.368000000     2.877000000     3.209000000
C    -0.674000000     1.734000000     3.852000000
H     0.095000000     1.145000000     4.345000000
C    -1.969000000     1.267000000     3.812000000
O    -2.208000000     0.079000000     4.389000000
C    -2.253000000    -0.968000000     3.485000000
H    -1.702000000    -0.580000000     2.616000000
C    -1.447000000    -2.206000000     3.955000000
C    -1.632000000    -3.415000000     3.302000000
H    -2.294000000    -3.550000000     2.450000000
C    -0.387000000    -2.006000000     4.820000000
H    -0.071000000    -1.020000000     5.151000000
C     0.553000000    -3.026000000     4.992000000
O     1.589000000    -2.874000000     5.931000000
C     0.353000000    -4.224000000     4.386000000
H     1.082000000    -5.027000000     4.450000000
C    -0.795000000    -4.449000000     3.629000000
O    -0.845000000    -5.553000000     2.816000000
C    -1.991000000    -6.057000000     2.214000000
C    -1.963000000    -6.138000000     0.830000000
H    -1.099000000    -5.798000000     0.265000000
C    -3.025000000    -6.595000000     2.933000000
H    -2.915000000    -6.532000000     4.013000000
C    -4.104000000    -7.221000000     2.300000000
H    -4.861000000    -7.710000000     2.907000000
C    -4.175000000    -7.164000000     0.926000000
H    -5.132000000    -7.434000000     0.487000000
C    -3.087000000    -6.695000000     0.184000000
O    -3.204000000    -6.657000000    -1.225000000
C    -2.787000000    -5.573000000    -1.948000000
C    -1.773000000    -5.687000000    -2.900000000
H    -1.298000000    -6.665000000    -2.884000000
C    -1.231000000    -4.605000000    -3.546000000
O    -0.130000000    -4.676000000    -4.361000000
C     0.317000000    -3.703000000    -5.196000000
C     1.500000000    -3.107000000    -4.870000000
H     2.037000000    -3.487000000    -4.004000000
C    -0.426000000    -3.289000000    -6.311000000
H    -1.393000000    -3.714000000    -6.569000000
C     0.041000000    -2.274000000    -7.142000000
H    -0.459000000    -1.854000000    -8.011000000
C     1.278000000    -1.741000000    -6.836000000
H     1.630000000    -0.875000000    -7.392000000
C     1.961000000    -2.115000000    -5.711000000
O     3.016000000    -1.357000000    -5.267000000
C     2.937000000    -0.058000000    -4.911000000
C     4.172000000     0.520000000    -4.706000000
H     5.064000000    -0.062000000    -4.921000000
C     4.332000000     1.804000000    -4.153000000
O     5.535000000     2.412000000    -4.057000000
C     5.972000000     2.960000000    -2.943000000
C     5.884000000     2.178000000    -1.747000000
H     5.501000000     1.161000000    -1.782000000
C     6.555000000     4.190000000    -2.967000000
H     6.507000000     4.885000000    -3.801000000
C     7.042000000     4.682000000    -1.792000000
H     7.619000000     5.604000000    -1.783000000
C     7.009000000     3.957000000    -0.643000000
H     7.505000000     4.331000000     0.249000000
C     6.326000000     2.719000000    -0.565000000
O     6.378000000     1.984000000     0.638000000
C     5.336000000     1.841000000     1.504000000
C     5.566000000     1.235000000     2.750000000
H     6.554000000     0.878000000     3.029000000
C     4.520000000     0.959000000     3.679000000
O     4.870000000     0.345000000     4.791000000
C     4.070000000    -0.290000000     5.676000000
C     4.018000000     0.326000000     6.947000000
H     4.634000000     1.203000000     7.129000000
C     3.126000000    -0.223000000     7.874000000
H     3.122000000     0.037000000     8.929000000
C     2.362000000    -1.318000000     7.571000000
H     1.945000000    -1.894000000     8.393000000
C     2.294000000    -1.744000000     6.242000000
C     3.074000000    -1.237000000     5.217000000
H     3.058000000    -1.638000000     4.206000000
C     0.950000000    -1.926000000     0.934000000
H     1.443000000    -2.390000000     1.784000000
C     0.299000000    -0.768000000     0.961000000
H     0.225000000    -0.278000000     1.928000000
C    -0.324000000    -0.202000000    -0.119000000
H    -1.126000000     0.561000000    -0.110000000
C    -0.026000000    -0.741000000    -1.381000000
H    -0.426000000    -0.338000000    -2.308000000
C     0.722000000    -1.963000000    -1.515000000
H     0.824000000    -2.471000000    -2.471000000
C     1.184000000    -2.560000000    -0.348000000
C     1.934000000    -3.869000000    -0.485000000
O     2.165000000    -4.363000000    -1.581000000
O     2.442000000    -4.359000000     0.470000000
O     3.837000000    -6.139000000     4.211000000
H     3.715000000    -7.088000000     4.236000000
H     3.938000000    -5.885000000     5.128000000
O     2.993000000    -0.234000000    -0.729000000
H     2.123000000    -0.622000000    -0.631000000
H     2.994000000     0.506000000    -0.122000000
O     3.744000000    -3.963000000     2.842000000
H     3.378000000    -4.458000000     2.109000000
H     3.827000000    -4.605000000     3.547000000
O     5.100000000    -2.115000000     0.977000000
H     4.864000000    -1.667000000     0.165000000
H     4.297000000    -2.561000000     1.247000000
O     4.354000000    -4.418000000    -3.002000000
H     4.804000000    -5.075000000    -2.471000000
H     3.526000000    -4.267000000    -2.546000000
O     4.989000000    -1.886000000    -2.084000000
H     4.130000000    -1.476000000    -1.982000000
H     4.819000000    -2.672000000    -2.602000000
O     1.281000000    -7.000000000    -2.060000000
H     1.645000000    -7.350000000    -1.246000000
H     1.676000000    -6.132000000    -2.144000000
O     1.732000000    -7.194000000     0.516000000
H     2.495000000    -7.520000000     0.993000000
H     1.829000000    -6.242000000     0.529000000
O     6.904000000    -4.491000000     0.732000000
H     6.249000000    -5.134000000     1.004000000
H     6.488000000    -3.644000000     0.891000000
O     1.940000000    -6.613000000    -6.109000000
H     1.880000000    -6.867000000    -5.188000000
H     1.218000000    -7.077000000    -6.532000000
O    -0.116000000    -8.859000000     2.233000000
H     0.452000000    -8.546000000     1.529000000
H    -0.452000000    -8.062000000     2.643000000
O     0.702000000    -8.266000000    -4.340000000
H     1.255000000    -9.039000000    -4.222000000
H     0.914000000    -7.704000000    -3.596000000
O     4.438000000    -6.334000000    -1.044000000
H     4.931000000    -6.440000000    -0.230000000
H     3.629000000    -5.895000000    -0.779000000
O     7.818000000    -4.746000000    -1.871000000
H     7.551000000    -4.770000000    -0.952000000
H     7.239000000    -4.097000000    -2.272000000
O     7.770000000    -1.053000000    -1.471000000
H     6.853000000    -1.138000000    -1.734000000
H     7.765000000    -1.221000000    -0.529000000
O     5.412000000    -6.483000000     1.607000000
H     6.094000000    -6.963000000     2.076000000
H     5.021000000    -5.913000000     2.270000000
O     6.784000000    -2.289000000     3.625000000
H     6.085000000    -2.335000000     2.972000000
H     7.404000000    -1.653000000     3.268000000
O     7.291000000    -7.526000000    -1.963000000
H     6.451000000    -7.431000000    -1.514000000
H     7.433000000    -6.678000000    -2.386000000
O     3.151000000    -9.693000000    -0.789000000
H     2.258000000    -9.993000000    -0.959000000
H     3.197000000    -8.831000000    -1.203000000
