215
-1443.76441
C    -1.002000000     2.320000000     4.253000000
H    -2.039000000     2.021000000     4.383000000
C    -0.519000000     3.066000000     3.176000000
C     0.835000000     3.558000000     3.197000000
H     1.127000000     4.117000000     2.312000000
C    -1.426000000     3.303000000     2.011000000
O    -2.801000000     3.356000000     2.332000000
H    -1.313000000     2.418000000     1.368000000
O    -1.133000000     4.499000000     1.302000000
C    -1.004000000     4.555000000    -0.044000000
C     0.299000000     4.554000000    -0.534000000
H     1.093000000     4.599000000     0.206000000
C     0.534000000     4.235000000    -1.854000000
O     1.824000000     4.057000000    -2.251000000
C    -0.562000000     4.161000000    -2.747000000
C    -0.346000000     3.684000000    -4.193000000
H    -1.248000000     4.062000000    -4.679000000
C    -0.071000000     2.190000000    -4.309000000
C    -1.179000000     1.337000000    -4.472000000
H    -2.135000000     1.790000000    -4.723000000
H     0.541000000     4.238000000    -4.506000000
C    -1.883000000     4.392000000    -2.256000000
H    -2.689000000     4.395000000    -2.984000000
C    -2.087000000     4.458000000    -0.896000000
C    -3.527000000     4.436000000    -0.294000000
H    -4.224000000     4.878000000    -1.010000000
H    -3.642000000     5.108000000     0.559000000
C    -3.769000000     2.988000000     0.144000000
C    -4.350000000     2.033000000    -0.752000000
H    -4.496000000     2.314000000    -1.792000000
C    -3.528000000     2.569000000     1.486000000
C    -3.963000000     1.328000000     1.928000000
H    -3.870000000     0.999000000     2.960000000
C    -4.433000000     0.409000000     1.016000000
O    -4.696000000    -0.842000000     1.362000000
C    -3.712000000    -1.803000000     0.978000000
C    -3.308000000    -2.653000000     2.167000000
C    -2.674000000    -3.870000000     1.824000000
H    -2.474000000    -4.164000000     0.796000000
C    -3.431000000    -2.235000000     3.515000000
H    -3.717000000    -1.224000000     3.795000000
O    -4.150000000    -2.670000000    -0.054000000
H    -2.779000000    -1.360000000     0.599000000
C    -4.685000000     0.813000000    -0.267000000
C    -5.268000000    -0.165000000    -1.261000000
H    -5.760000000     0.359000000    -2.083000000
H    -6.088000000    -0.704000000    -0.783000000
C    -4.286000000    -1.158000000    -1.938000000
C    -3.780000000    -0.742000000    -3.152000000
H    -4.212000000     0.156000000    -3.586000000
C    -3.815000000    -2.279000000    -1.304000000
C    -2.769000000    -2.971000000    -1.913000000
H    -2.366000000    -3.855000000    -1.425000000
C    -2.301000000    -2.606000000    -3.166000000
O    -1.189000000    -3.230000000    -3.757000000
C     0.045000000    -2.671000000    -3.446000000
C     1.102000000    -3.680000000    -3.124000000
C     0.707000000    -4.866000000    -2.531000000
H    -0.339000000    -5.046000000    -2.296000000
C     2.465000000    -3.492000000    -3.387000000
H     2.850000000    -2.649000000    -3.954000000
O     0.513000000    -1.858000000    -4.569000000
H    -0.089000000    -2.096000000    -2.517000000
C    -2.811000000    -1.488000000    -3.765000000
C    -2.235000000    -0.927000000    -5.071000000
H    -2.945000000    -0.447000000    -5.748000000
H    -2.007000000    -1.852000000    -5.606000000
C    -1.042000000    -0.027000000    -4.720000000
C     0.253000000    -0.493000000    -4.649000000
C     1.376000000     0.276000000    -4.473000000
H     2.371000000    -0.150000000    -4.377000000
C     1.209000000     1.639000000    -4.221000000
O     2.363000000     2.275000000    -3.706000000
C     2.303000000     2.717000000    -2.343000000
H     1.717000000     2.055000000    -1.690000000
C     3.661000000     2.588000000    -1.729000000
C     4.207000000     3.632000000    -0.994000000
H     3.669000000     4.577000000    -0.988000000
C     4.336000000     1.376000000    -1.742000000
H     3.903000000     0.536000000    -2.280000000
C     5.366000000     1.130000000    -0.919000000
O     5.979000000    -0.112000000    -0.903000000
C     5.848000000     2.085000000    -0.061000000
H     6.579000000     1.793000000     0.689000000
C     5.267000000     3.361000000    -0.114000000
O     5.820000000     4.434000000     0.563000000
C     5.074000000     4.952000000     1.592000000
C     4.454000000     4.137000000     2.488000000
H     4.529000000     3.058000000     2.377000000
C     4.718000000     6.284000000     1.510000000
H     5.023000000     6.844000000     0.630000000
C     3.908000000     6.855000000     2.438000000
H     3.692000000     7.920000000     2.447000000
C     3.439000000     6.050000000     3.466000000
H     2.801000000     6.404000000     4.272000000
C     3.681000000     4.657000000     3.487000000
O     2.957000000     3.827000000     4.356000000
C     1.696000000     3.281000000     4.264000000
C     1.270000000     2.460000000     5.271000000
H     1.923000000     2.201000000     6.101000000
C    -0.062000000     2.001000000     5.337000000
O    -0.404000000     1.204000000     6.481000000
C    -1.584000000     0.497000000     6.662000000
C    -1.755000000    -0.853000000     6.204000000
H    -0.876000000    -1.257000000     5.709000000
C    -2.710000000     1.078000000     7.305000000
H    -2.679000000     2.111000000     7.643000000
C    -3.913000000     0.369000000     7.494000000
H    -4.766000000     0.794000000     8.017000000
C    -4.057000000    -0.944000000     7.001000000
H    -4.949000000    -1.558000000     7.092000000
C    -2.973000000    -1.567000000     6.360000000
O    -3.193000000    -2.790000000     5.870000000
C    -3.028000000    -3.154000000     4.541000000
C    -2.329000000    -4.262000000     4.179000000
H    -2.042000000    -4.947000000     4.973000000
C    -2.168000000    -4.644000000     2.840000000
O    -1.593000000    -5.875000000     2.560000000
C    -1.315000000    -6.366000000     1.305000000
C    -0.130000000    -6.174000000     0.646000000
H     0.656000000    -5.517000000     1.011000000
C    -2.298000000    -7.213000000     0.808000000
H    -3.212000000    -7.356000000     1.378000000
C    -2.041000000    -8.000000000    -0.281000000
H    -2.761000000    -8.762000000    -0.567000000
C    -0.832000000    -7.894000000    -0.977000000
H    -0.653000000    -8.630000000    -1.757000000
C     0.165000000    -6.955000000    -0.505000000
O     1.382000000    -6.898000000    -1.165000000
C     1.626000000    -5.773000000    -1.967000000
C     2.953000000    -5.557000000    -2.222000000
H     3.688000000    -6.274000000    -1.868000000
C     3.361000000    -4.400000000    -2.899000000
O     4.716000000    -4.205000000    -3.066000000
C     5.289000000    -2.913000000    -3.175000000
C     6.230000000    -2.650000000    -4.194000000
H     6.454000000    -3.509000000    -4.822000000
C     6.946000000    -1.414000000    -4.172000000
H     7.704000000    -1.226000000    -4.928000000
C     6.798000000    -0.512000000    -3.123000000
H     7.379000000     0.404000000    -3.058000000
C     5.945000000    -0.845000000    -2.056000000
C     5.256000000    -2.057000000    -2.081000000
H     4.676000000    -2.343000000    -1.207000000
C     1.626000000    -2.240000000     0.180000000
H     2.469000000    -2.784000000    -0.239000000
C     0.855000000    -1.413000000    -0.592000000
H     1.174000000    -1.146000000    -1.596000000
C    -0.119000000    -0.596000000     0.007000000
H    -0.596000000     0.096000000    -0.531000000
C    -0.337000000    -0.746000000     1.363000000
H    -1.047000000    -0.128000000     1.906000000
C     0.352000000    -1.703000000     2.082000000
H     0.134000000    -1.800000000     3.143000000
C     1.387000000    -2.418000000     1.542000000
C     2.222000000    -3.467000000     2.386000000
O     2.053000000    -3.550000000     3.568000000
O     3.148000000    -4.031000000     1.910000000
O     3.900000000     0.523000000     2.183000000
H     3.538000000    -0.318000000     1.903000000
H     4.033000000     1.009000000     1.369000000
O     6.741000000    -1.129000000     3.203000000
H     6.187000000    -0.373000000     3.005000000
H     6.253000000    -1.879000000     2.862000000
O     3.947000000    -8.027000000     3.783000000
H     3.982000000    -8.706000000     3.109000000
H     4.621000000    -7.398000000     3.524000000
O     3.753000000    -6.484000000     0.994000000
H     2.896000000    -6.893000000     0.875000000
H     3.555000000    -5.596000000     1.291000000
O     4.882000000    -4.919000000     3.852000000
H     3.946000000    -5.062000000     3.711000000
H     4.924000000    -4.141000000     4.408000000
O     1.671000000    -5.355000000     5.408000000
H     1.267000000    -6.022000000     4.851000000
H     1.876000000    -4.636000000     4.810000000
O     3.814000000    -0.159000000     6.546000000
H     3.095000000    -0.636000000     6.131000000
H     4.079000000     0.490000000     5.894000000
O     7.319000000    -4.196000000    -0.403000000
H     6.836000000    -4.973000000    -0.683000000
H     6.797000000    -3.834000000     0.313000000
O     5.646000000    -5.714000000     7.311000000
H     5.512000000    -5.997000000     6.407000000
H     6.495000000    -6.084000000     7.554000000
O     3.611000000    -9.836000000     1.736000000
H     3.855000000    -9.867000000     0.811000000
H     2.859000000    -9.245000000     1.766000000
O     3.062000000    -6.442000000     7.824000000
H     2.724000000    -5.861000000     7.143000000
H     3.991000000    -6.221000000     7.889000000
O     5.173000000    -2.963000000     5.744000000
H     5.998000000    -3.157000000     6.189000000
H     5.320000000    -2.115000000     5.326000000
O    -0.983000000    -8.203000000     4.958000000
H    -1.014000000    -7.756000000     5.804000000
H    -0.182000000    -7.879000000     4.546000000
O     1.172000000    -7.331000000     3.394000000
H     0.669000000    -8.044000000     3.002000000
H     2.058000000    -7.683000000     3.482000000
O     5.519000000    -3.224000000     1.728000000
H     4.578000000    -3.388000000     1.653000000
H     5.831000000    -3.899000000     2.331000000
O     6.650000000    -7.098000000     2.849000000
H     6.618000000    -7.528000000     3.703000000
H     6.479000000    -6.175000000     3.038000000
O     0.103000000    -3.694000000     7.198000000
H     0.712000000    -4.205000000     6.665000000
H    -0.698000000    -4.218000000     7.216000000
O     6.185000000    -7.015000000    -0.502000000
H     5.410000000    -6.857000000     0.037000000
H     6.618000000    -7.761000000    -0.087000000
O     1.748000000    -1.818000000     5.490000000
H     1.161000000    -2.395000000     5.977000000
H     1.969000000    -2.313000000     4.701000000
