215
-1437.02289
C    -0.083000000     1.079000000     5.207000000
H    -1.108000000     0.721000000     5.252000000
C     0.268000000     2.102000000     4.366000000
C     1.655000000     2.546000000     4.369000000
H     1.977000000     3.361000000     3.726000000
C    -0.718000000     2.740000000     3.414000000
O    -2.116000000     2.552000000     3.872000000
H    -0.751000000     2.260000000     2.425000000
O    -0.501000000     4.192000000     3.146000000
C    -0.643000000     4.636000000     1.837000000
C     0.567000000     4.689000000     1.146000000
H     1.453000000     4.353000000     1.678000000
C     0.519000000     4.756000000    -0.261000000
O     1.787000000     4.583000000    -0.908000000
C    -0.670000000     4.835000000    -0.976000000
C    -0.709000000     4.920000000    -2.521000000
H    -1.507000000     5.533000000    -2.945000000
C    -0.610000000     3.480000000    -3.164000000
C    -1.777000000     2.886000000    -3.652000000
H    -2.677000000     3.486000000    -3.767000000
H     0.207000000     5.432000000    -2.826000000
C    -1.830000000     4.798000000    -0.233000000
H    -2.813000000     4.990000000    -0.656000000
C    -1.890000000     4.587000000     1.158000000
C    -3.221000000     4.440000000     1.875000000
H    -4.055000000     5.024000000     1.481000000
H    -3.218000000     4.827000000     2.896000000
C    -3.532000000     2.947000000     1.932000000
C    -4.344000000     2.356000000     0.930000000
H    -4.720000000     2.911000000     0.075000000
C    -3.037000000     2.066000000     2.904000000
C    -3.410000000     0.712000000     2.895000000
H    -3.008000000     0.053000000     3.661000000
C    -4.098000000     0.170000000     1.880000000
O    -4.284000000    -1.182000000     1.816000000
C    -3.420000000    -1.959000000     0.878000000
C    -2.637000000    -3.169000000     1.461000000
C    -1.970000000    -4.075000000     0.586000000
H    -1.966000000    -3.970000000    -0.496000000
C    -2.429000000    -3.309000000     2.873000000
H    -2.665000000    -2.523000000     3.587000000
O    -4.260000000    -2.351000000    -0.231000000
H    -2.671000000    -1.245000000     0.505000000
C    -4.597000000     1.004000000     0.884000000
C    -5.432000000     0.436000000    -0.294000000
H    -6.015000000     1.193000000    -0.823000000
H    -6.251000000    -0.150000000     0.127000000
C    -4.669000000    -0.261000000    -1.384000000
C    -4.316000000     0.493000000    -2.478000000
H    -4.725000000     1.500000000    -2.510000000
C    -4.151000000    -1.582000000    -1.299000000
C    -3.452000000    -2.181000000    -2.345000000
H    -3.020000000    -3.171000000    -2.223000000
C    -3.046000000    -1.327000000    -3.424000000
O    -2.148000000    -1.807000000    -4.332000000
C    -0.745000000    -1.478000000    -4.061000000
C     0.111000000    -2.719000000    -4.299000000
C    -0.282000000    -4.084000000    -4.346000000
H    -1.338000000    -4.294000000    -4.193000000
C     1.499000000    -2.464000000    -4.358000000
H     1.873000000    -1.445000000    -4.409000000
O    -0.434000000    -0.282000000    -4.862000000
H    -0.657000000    -1.217000000    -2.996000000
C    -3.522000000    -0.034000000    -3.495000000
C    -3.062000000     0.916000000    -4.668000000
H    -3.736000000     1.646000000    -5.119000000
H    -2.961000000     0.361000000    -5.603000000
C    -1.807000000     1.621000000    -4.289000000
C    -0.563000000     0.963000000    -4.406000000
C     0.606000000     1.548000000    -3.986000000
H     1.539000000     1.019000000    -4.162000000
C     0.581000000     2.743000000    -3.297000000
O     1.767000000     3.227000000    -2.930000000
C     2.037000000     3.264000000    -1.538000000
H     1.319000000     2.587000000    -1.053000000
C     3.423000000     2.721000000    -1.227000000
C     4.132000000     3.199000000    -0.100000000
H     3.649000000     4.007000000     0.443000000
C     3.924000000     1.612000000    -1.891000000
H     3.293000000     1.142000000    -2.642000000
C     5.235000000     1.130000000    -1.583000000
O     5.751000000    -0.030000000    -2.156000000
C     5.950000000     1.632000000    -0.504000000
H     6.942000000     1.262000000    -0.256000000
C     5.410000000     2.746000000     0.204000000
O     6.149000000     3.209000000     1.220000000
C     5.535000000     3.719000000     2.413000000
C     5.057000000     2.820000000     3.354000000
H     5.186000000     1.749000000     3.223000000
C     5.490000000     5.090000000     2.631000000
H     5.806000000     5.774000000     1.847000000
C     4.831000000     5.576000000     3.800000000
H     4.810000000     6.640000000     4.022000000
C     4.241000000     4.700000000     4.674000000
H     3.690000000     4.978000000     5.569000000
C     4.404000000     3.302000000     4.544000000
O     3.824000000     2.380000000     5.400000000
C     2.510000000     2.014000000     5.311000000
C     2.144000000     0.954000000     6.129000000
H     2.779000000     0.617000000     6.944000000
C     0.808000000     0.476000000     6.002000000
O     0.417000000    -0.572000000     6.853000000
C    -0.659000000    -1.425000000     6.718000000
C    -0.497000000    -2.508000000     5.802000000
H     0.460000000    -2.646000000     5.304000000
C    -1.931000000    -1.155000000     7.383000000
H    -1.976000000    -0.324000000     8.081000000
C    -2.993000000    -2.000000000     7.053000000
H    -3.968000000    -1.890000000     7.522000000
C    -2.740000000    -3.211000000     6.362000000
H    -3.532000000    -3.955000000     6.325000000
C    -1.546000000    -3.447000000     5.689000000
O    -1.450000000    -4.479000000     4.775000000
C    -1.721000000    -4.364000000     3.401000000
C    -1.146000000    -5.294000000     2.519000000
H    -0.506000000    -6.098000000     2.874000000
C    -1.275000000    -5.145000000     1.150000000
O    -0.630000000    -6.078000000     0.339000000
C    -1.081000000    -6.500000000    -0.923000000
C    -0.203000000    -6.359000000    -1.955000000
H     0.697000000    -5.757000000    -1.864000000
C    -2.388000000    -6.920000000    -1.113000000
H    -3.064000000    -6.745000000    -0.280000000
C    -2.796000000    -7.234000000    -2.427000000
H    -3.808000000    -7.274000000    -2.822000000
C    -1.885000000    -7.131000000    -3.485000000
H    -2.204000000    -7.260000000    -4.516000000
C    -0.592000000    -6.681000000    -3.238000000
O     0.178000000    -6.498000000    -4.352000000
C     0.626000000    -5.149000000    -4.528000000
C     1.960000000    -4.890000000    -4.613000000
H     2.704000000    -5.678000000    -4.527000000
C     2.345000000    -3.550000000    -4.620000000
O     3.673000000    -3.405000000    -4.886000000
C     4.310000000    -2.200000000    -4.730000000
C     4.743000000    -1.555000000    -5.870000000
H     4.455000000    -2.009000000    -6.815000000
C     5.443000000    -0.387000000    -5.762000000
H     5.818000000     0.048000000    -6.685000000
C     5.710000000     0.212000000    -4.573000000
H     6.185000000     1.189000000    -4.526000000
C     5.341000000    -0.460000000    -3.397000000
C     4.693000000    -1.699000000    -3.503000000
H     4.380000000    -2.130000000    -2.555000000
C     1.163000000    -2.545000000     0.113000000
H     1.641000000    -3.235000000    -0.578000000
C     0.554000000    -1.358000000    -0.404000000
H     0.591000000    -1.186000000    -1.476000000
C    -0.050000000    -0.432000000     0.411000000
H    -0.430000000     0.406000000    -0.020000000
C     0.129000000    -0.540000000     1.769000000
H    -0.122000000     0.272000000     2.446000000
C     0.842000000    -1.608000000     2.352000000
H     1.077000000    -1.684000000     3.411000000
C     1.358000000    -2.623000000     1.462000000
C     2.013000000    -3.905000000     1.927000000
O     2.280000000    -4.009000000     3.103000000
O     2.431000000    -4.750000000     1.144000000
O     3.887000000    -0.849000000     1.107000000
H     4.156000000    -1.720000000     0.814000000
H     2.963000000    -0.790000000     0.863000000
O     1.687000000    -8.936000000    -1.919000000
H     2.600000000    -9.107000000    -2.151000000
H     1.715000000    -8.114000000    -1.428000000
O     2.534000000    -6.801000000    -0.403000000
H     2.418000000    -5.889000000    -0.134000000
H     3.482000000    -6.913000000    -0.466000000
O     4.830000000    -8.394000000    -0.286000000
H     4.650000000    -9.124000000    -0.879000000
H     4.397000000    -8.637000000     0.532000000
O     2.737000000    -8.951000000     4.420000000
H     2.404000000    -8.241000000     3.871000000
H     2.040000000    -9.107000000     5.058000000
O     1.708000000    -7.408000000     2.305000000
H     2.198000000    -7.894000000     1.642000000
H     1.535000000    -6.558000000     1.899000000
O     6.435000000    -3.841000000     5.212000000
H     5.881000000    -3.270000000     4.680000000
H     6.014000000    -4.699000000     5.161000000
O    -0.448000000    -9.415000000    -0.247000000
H     0.179000000    -8.949000000    -0.801000000
H     0.021000000    -9.562000000     0.574000000
O    -0.882000000    -6.669000000     6.640000000
H    -0.330000000    -6.104000000     6.099000000
H    -0.632000000    -7.559000000     6.391000000
O     4.348000000    -5.842000000     3.538000000
H     3.506000000    -5.524000000     3.212000000
H     4.997000000    -5.296000000     3.095000000
O     5.672000000    -6.637000000     5.736000000
H     6.416000000    -7.236000000     5.671000000
H     5.116000000    -6.865000000     4.990000000
O     6.775000000    -4.677000000     2.337000000
H     7.157000000    -5.371000000     2.874000000
H     7.529000000    -4.228000000     1.954000000
O    -0.346000000    -9.225000000     2.495000000
H     0.152000000    -8.408000000     2.508000000
H    -1.207000000    -8.987000000     2.840000000
O     5.088000000    -3.317000000     0.542000000
H     5.743000000    -3.588000000     1.186000000
H     4.405000000    -3.985000000     0.600000000
O     5.780000000    -8.114000000     2.655000000
H     5.308000000    -7.495000000     3.212000000
H     6.154000000    -7.573000000     1.959000000
O     1.420000000    -5.667000000     5.304000000
H     1.916000000    -4.947000000     4.914000000
H     1.360000000    -6.321000000     4.607000000
O     6.490000000    -0.755000000     2.069000000
H     5.568000000    -0.824000000     1.822000000
H     6.951000000    -1.297000000     1.429000000
O     4.115000000    -2.475000000     4.764000000
H     3.737000000    -1.601000000     4.673000000
H     3.622000000    -3.015000000     4.146000000
O     6.304000000    -4.344000000    -1.819000000
H     5.723000000    -3.839000000    -1.251000000
H     7.179000000    -4.190000000    -1.464000000
