215
-1461.10128
C     0.333000000     0.994000000     5.067000000
H    -0.712000000     0.695000000     5.076000000
C     0.656000000     2.099000000     4.257000000
C     2.003000000     2.514000000     4.123000000
H     2.229000000     3.287000000     3.393000000
C    -0.466000000     2.736000000     3.329000000
O    -1.834000000     2.513000000     3.852000000
H    -0.455000000     2.224000000     2.355000000
O    -0.222000000     4.119000000     3.036000000
C    -0.332000000     4.464000000     1.755000000
C     0.815000000     4.581000000     1.023000000
H     1.765000000     4.517000000     1.546000000
C     0.719000000     4.734000000    -0.322000000
O     1.874000000     4.551000000    -0.995000000
C    -0.463000000     4.752000000    -1.015000000
C    -0.507000000     5.003000000    -2.528000000
H    -1.380000000     5.633000000    -2.711000000
C    -0.594000000     3.628000000    -3.198000000
C    -1.810000000     3.032000000    -3.457000000
H    -2.655000000     3.626000000    -3.119000000
H     0.325000000     5.438000000    -3.085000000
C    -1.682000000     4.594000000    -0.284000000
H    -2.653000000     4.493000000    -0.763000000
C    -1.646000000     4.492000000     1.143000000
C    -2.887000000     4.450000000     1.955000000
H    -3.619000000     5.077000000     1.441000000
H    -2.712000000     4.816000000     2.969000000
C    -3.335000000     2.957000000     2.022000000
C    -4.199000000     2.399000000     1.070000000
H    -4.546000000     3.035000000     0.260000000
C    -2.850000000     2.081000000     2.993000000
C    -3.245000000     0.743000000     3.124000000
H    -2.713000000     0.125000000     3.843000000
C    -4.099000000     0.188000000     2.200000000
O    -4.364000000    -1.161000000     2.233000000
C    -3.594000000    -1.951000000     1.225000000
C    -3.024000000    -3.187000000     1.907000000
C    -2.724000000    -4.281000000     1.140000000
H    -2.942000000    -4.180000000     0.080000000
C    -2.757000000    -3.184000000     3.293000000
H    -3.087000000    -2.346000000     3.902000000
O    -4.372000000    -2.275000000     0.004000000
H    -2.754000000    -1.282000000     0.984000000
C    -4.611000000     1.023000000     1.191000000
C    -5.518000000     0.506000000     0.096000000
H    -6.188000000     1.304000000    -0.233000000
H    -6.191000000    -0.281000000     0.442000000
C    -4.744000000    -0.075000000    -1.098000000
C    -4.530000000     0.749000000    -2.157000000
H    -4.931000000     1.759000000    -2.162000000
C    -4.263000000    -1.409000000    -1.057000000
C    -3.693000000    -1.937000000    -2.232000000
H    -3.548000000    -3.005000000    -2.373000000
C    -3.333000000    -1.029000000    -3.244000000
O    -2.539000000    -1.544000000    -4.259000000
C    -1.108000000    -1.279000000    -4.213000000
C    -0.232000000    -2.543000000    -4.299000000
C    -0.815000000    -3.790000000    -4.084000000
H    -1.891000000    -3.817000000    -3.935000000
C     1.105000000    -2.384000000    -4.528000000
H     1.642000000    -1.462000000    -4.734000000
O    -0.762000000    -0.166000000    -5.102000000
H    -0.908000000    -0.890000000    -3.204000000
C    -3.733000000     0.323000000    -3.223000000
C    -3.290000000     1.175000000    -4.372000000
H    -3.991000000     1.987000000    -4.573000000
H    -3.319000000     0.630000000    -5.318000000
C    -1.934000000     1.785000000    -4.157000000
C    -0.750000000     1.095000000    -4.545000000
C     0.515000000     1.758000000    -4.277000000
H     1.421000000     1.170000000    -4.397000000
C     0.610000000     2.942000000    -3.604000000
O     1.809000000     3.405000000    -3.205000000
C     2.105000000     3.339000000    -1.788000000
H     1.562000000     2.544000000    -1.257000000
C     3.519000000     2.735000000    -1.596000000
C     4.331000000     3.209000000    -0.535000000
H     3.955000000     4.084000000    -0.013000000
C     3.973000000     1.603000000    -2.284000000
H     3.302000000     1.191000000    -3.033000000
C     5.218000000     1.071000000    -2.074000000
O     5.831000000    -0.014000000    -2.830000000
C     6.059000000     1.607000000    -1.052000000
H     7.055000000     1.204000000    -0.887000000
C     5.535000000     2.595000000    -0.219000000
O     6.392000000     3.038000000     0.716000000
C     6.038000000     3.518000000     1.952000000
C     5.251000000     2.725000000     2.815000000
H     4.970000000     1.744000000     2.441000000
C     6.310000000     4.842000000     2.337000000
H     6.800000000     5.461000000     1.591000000
C     5.967000000     5.326000000     3.598000000
H     6.179000000     6.370000000     3.813000000
C     5.363000000     4.501000000     4.489000000
H     5.098000000     4.914000000     5.459000000
C     4.984000000     3.179000000     4.105000000
O     4.334000000     2.337000000     4.981000000
C     3.011000000     1.833000000     4.814000000
C     2.674000000     0.724000000     5.634000000
H     3.489000000     0.326000000     6.232000000
C     1.391000000     0.332000000     5.737000000
O     1.090000000    -0.769000000     6.457000000
C    -0.081000000    -1.372000000     6.559000000
C    -0.200000000    -2.585000000     5.872000000
H     0.699000000    -3.106000000     5.552000000
C    -1.156000000    -0.843000000     7.179000000
H    -1.094000000     0.101000000     7.716000000
C    -2.445000000    -1.460000000     7.175000000
H    -3.365000000    -1.045000000     7.579000000
C    -2.561000000    -2.711000000     6.567000000
H    -3.518000000    -3.210000000     6.432000000
C    -1.458000000    -3.194000000     5.832000000
O    -1.579000000    -4.340000000     5.108000000
C    -2.043000000    -4.258000000     3.826000000
C    -1.730000000    -5.377000000     2.980000000
H    -1.236000000    -6.230000000     3.438000000
C    -1.988000000    -5.349000000     1.634000000
O    -1.579000000    -6.415000000     0.857000000
C    -1.928000000    -6.569000000    -0.498000000
C    -1.067000000    -6.215000000    -1.543000000
H    -0.191000000    -5.614000000    -1.315000000
C    -3.075000000    -7.217000000    -0.777000000
H    -3.786000000    -7.428000000     0.017000000
C    -3.402000000    -7.561000000    -2.046000000
H    -4.380000000    -7.926000000    -2.352000000
C    -2.518000000    -7.213000000    -3.136000000
H    -2.800000000    -7.359000000    -4.176000000
C    -1.303000000    -6.607000000    -2.861000000
O    -0.456000000    -6.205000000    -3.841000000
C    -0.004000000    -4.961000000    -4.045000000
C     1.382000000    -4.793000000    -4.247000000
H     2.073000000    -5.614000000    -4.073000000
C     1.901000000    -3.501000000    -4.460000000
O     3.260000000    -3.509000000    -4.700000000
C     3.989000000    -2.369000000    -4.867000000
C     4.548000000    -2.026000000    -6.146000000
H     4.363000000    -2.720000000    -6.961000000
C     5.369000000    -0.939000000    -6.268000000
H     5.675000000    -0.653000000    -7.271000000
C     5.743000000    -0.191000000    -5.147000000
H     6.486000000     0.599000000    -5.205000000
C     5.324000000    -0.661000000    -3.875000000
C     4.475000000    -1.700000000    -3.706000000
H     4.136000000    -1.983000000    -2.712000000
C     1.053000000    -2.503000000     0.094000000
H     1.440000000    -3.324000000    -0.504000000
C     0.388000000    -1.444000000    -0.421000000
H     0.434000000    -1.310000000    -1.499000000
C    -0.078000000    -0.378000000     0.366000000
H    -0.319000000     0.583000000    -0.138000000
C    -0.067000000    -0.536000000     1.800000000
H    -0.474000000     0.179000000     2.511000000
C     0.606000000    -1.663000000     2.323000000
H     0.659000000    -1.834000000     3.395000000
C     1.198000000    -2.599000000     1.476000000
C     1.814000000    -3.814000000     2.085000000
O     1.820000000    -3.945000000     3.316000000
O     2.236000000    -4.694000000     1.359000000
O     3.793000000    -0.261000000     1.108000000
H     3.795000000    -1.063000000     0.586000000
H     2.874000000    -0.131000000     1.343000000
O     3.426000000    -9.375000000     1.737000000
H     3.135000000    -9.903000000     2.480000000
H     3.343000000    -9.957000000     0.982000000
O     1.320000000    -8.992000000    -2.050000000
H     2.273000000    -9.027000000    -2.133000000
H     1.138000000    -8.097000000    -1.764000000
O     2.171000000    -6.326000000    -0.928000000
H     2.204000000    -5.664000000    -0.237000000
H     3.064000000    -6.667000000    -0.976000000
O     4.635000000    -7.333000000    -0.345000000
H     4.550000000    -8.214000000    -0.709000000
H     4.534000000    -7.453000000     0.599000000
O     4.040000000    -6.559000000     5.521000000
H     3.085000000    -6.500000000     5.560000000
H     4.251000000    -6.411000000     4.599000000
O     2.133000000    -3.240000000     7.995000000
H     1.501000000    -3.376000000     8.702000000
H     2.746000000    -3.970000000     8.079000000
O     1.452000000    -7.036000000     2.148000000
H     1.868000000    -7.607000000     1.502000000
H     1.591000000    -6.151000000     1.811000000
O     8.041000000    -3.054000000     3.566000000
H     7.378000000    -2.388000000     3.750000000
H     8.208000000    -3.467000000     4.413000000
O     3.866000000    -5.369000000     7.885000000
H     3.835000000    -5.675000000     6.978000000
H     4.252000000    -6.098000000     8.370000000
O    -1.298000000    -7.097000000     6.542000000
H    -1.082000000    -6.273000000     6.979000000
H    -0.625000000    -7.194000000     5.869000000
O     4.201000000    -6.234000000     2.891000000
H     4.859000000    -5.564000000     2.704000000
H     3.452000000    -5.992000000     2.347000000
O     6.424000000    -4.666000000     1.962000000
H     7.032000000    -3.968000000     2.203000000
H     6.916000000    -5.474000000     2.110000000
O    -0.269000000    -8.966000000     2.104000000
H     0.125000000    -8.094000000     2.118000000
H    -1.209000000    -8.805000000     2.184000000
O     4.511000000    -3.716000000     0.237000000
H     5.197000000    -4.082000000     0.796000000
H     3.695000000    -4.056000000     0.605000000
O     1.368000000    -6.034000000     4.829000000
H     1.423000000    -6.658000000     4.105000000
H     1.520000000    -5.181000000     4.422000000
O     6.605000000    -0.553000000     1.822000000
H     5.742000000    -0.349000000     1.463000000
H     7.011000000    -1.119000000     1.166000000
O     5.749000000    -1.814000000     6.407000000
H     6.087000000    -1.359000000     5.636000000
H     4.959000000    -2.256000000     6.097000000
O     3.518000000    -3.052000000     5.439000000
H     3.020000000    -2.937000000     6.248000000
H     2.897000000    -3.454000000     4.831000000
