215
-1484.48631
C     0.795000000     1.432000000     4.496000000
H    -0.224000000     1.116000000     4.292000000
C     1.238000000     2.551000000     3.761000000
C     2.481000000     3.053000000     3.912000000
H     2.844000000     3.857000000     3.278000000
C     0.351000000     3.069000000     2.696000000
O    -0.936000000     3.430000000     3.234000000
H     0.230000000     2.372000000     1.854000000
O     0.821000000     4.300000000     2.137000000
C     0.660000000     4.547000000     0.799000000
C     1.798000000     4.288000000     0.043000000
H     2.707000000     3.813000000     0.403000000
C     1.706000000     4.347000000    -1.356000000
O     2.824000000     3.879000000    -2.112000000
C     0.465000000     4.540000000    -1.955000000
C     0.289000000     4.400000000    -3.463000000
H    -0.545000000     5.040000000    -3.756000000
C     0.138000000     2.947000000    -3.892000000
C    -1.181000000     2.570000000    -4.175000000
H    -1.955000000     3.303000000    -3.963000000
H     1.208000000     4.806000000    -3.889000000
C    -0.661000000     4.886000000    -1.196000000
H    -1.617000000     5.035000000    -1.692000000
C    -0.538000000     4.978000000     0.216000000
C    -1.708000000     5.284000000     1.062000000
H    -2.382000000     6.029000000     0.634000000
H    -1.396000000     5.680000000     2.031000000
C    -2.424000000     3.974000000     1.328000000
C    -3.552000000     3.546000000     0.562000000
H    -3.885000000     4.162000000    -0.269000000
C    -2.003000000     3.152000000     2.385000000
C    -2.701000000     1.980000000     2.640000000
H    -2.420000000     1.333000000     3.467000000
C    -3.778000000     1.518000000     1.822000000
O    -4.483000000     0.343000000     2.184000000
C    -4.194000000    -0.834000000     1.348000000
C    -4.127000000    -2.076000000     2.186000000
C    -4.481000000    -3.299000000     1.647000000
H    -4.812000000    -3.464000000     0.625000000
C    -3.348000000    -2.037000000     3.376000000
H    -2.968000000    -1.094000000     3.760000000
O    -5.237000000    -0.938000000     0.297000000
H    -3.252000000    -0.647000000     0.812000000
C    -4.240000000     2.302000000     0.762000000
C    -5.358000000     1.859000000    -0.161000000
H    -5.940000000     2.680000000    -0.584000000
H    -6.139000000     1.344000000     0.403000000
C    -4.800000000     0.841000000    -1.271000000
C    -4.209000000     1.300000000    -2.469000000
H    -4.182000000     2.374000000    -2.634000000
C    -4.809000000    -0.516000000    -0.989000000
C    -4.135000000    -1.414000000    -1.762000000
H    -4.197000000    -2.468000000    -1.503000000
C    -3.567000000    -0.957000000    -2.950000000
O    -2.781000000    -1.855000000    -3.651000000
C    -1.320000000    -1.704000000    -3.534000000
C    -0.678000000    -3.087000000    -3.445000000
C    -1.240000000    -4.114000000    -2.722000000
H    -2.082000000    -3.858000000    -2.084000000
C     0.586000000    -3.367000000    -3.986000000
H     1.169000000    -2.630000000    -4.533000000
O    -0.798000000    -1.036000000    -4.610000000
H    -1.163000000    -1.134000000    -2.606000000
C    -3.619000000     0.380000000    -3.340000000
C    -3.055000000     0.871000000    -4.648000000
H    -3.699000000     1.620000000    -5.112000000
H    -3.164000000     0.080000000    -5.393000000
C    -1.565000000     1.234000000    -4.497000000
C    -0.524000000     0.301000000    -4.547000000
C     0.795000000     0.661000000    -4.355000000
H     1.567000000    -0.103000000    -4.326000000
C     1.166000000     1.967000000    -3.955000000
O     2.503000000     2.184000000    -3.686000000
C     2.797000000     2.434000000    -2.325000000
H     1.985000000     2.052000000    -1.690000000
C     4.013000000     1.662000000    -1.860000000
C     4.882000000     2.234000000    -0.855000000
H     4.888000000     3.296000000    -0.622000000
C     4.228000000     0.314000000    -2.276000000
H     3.538000000    -0.235000000    -2.912000000
C     5.195000000    -0.500000000    -1.613000000
O     5.445000000    -1.825000000    -1.975000000
C     5.983000000     0.072000000    -0.593000000
H     6.792000000    -0.578000000    -0.271000000
C     5.815000000     1.424000000    -0.212000000
O     6.806000000     2.039000000     0.522000000
C     6.462000000     2.883000000     1.566000000
C     5.612000000     2.424000000     2.592000000
H     5.403000000     1.363000000     2.701000000
C     7.059000000     4.094000000     1.789000000
H     7.746000000     4.403000000     1.005000000
C     6.720000000     4.998000000     2.822000000
H     7.136000000     5.996000000     2.941000000
C     5.866000000     4.545000000     3.745000000
H     5.494000000     5.185000000     4.541000000
C     5.406000000     3.250000000     3.739000000
O     4.690000000     2.876000000     4.814000000
C     3.365000000     2.436000000     4.846000000
C     2.964000000     1.327000000     5.562000000
H     3.683000000     0.788000000     6.174000000
C     1.660000000     0.849000000     5.350000000
O     1.312000000    -0.251000000     6.079000000
C    -0.005000000    -0.668000000     6.235000000
C    -0.457000000    -1.910000000     5.784000000
H     0.310000000    -2.601000000     5.444000000
C    -0.923000000     0.217000000     6.850000000
H    -0.511000000     1.133000000     7.267000000
C    -2.252000000    -0.115000000     6.997000000
H    -2.982000000     0.503000000     7.514000000
C    -2.685000000    -1.326000000     6.436000000
H    -3.727000000    -1.618000000     6.533000000
C    -1.793000000    -2.234000000     5.868000000
O    -2.244000000    -3.351000000     5.181000000
C    -3.074000000    -3.220000000     4.048000000
C    -3.442000000    -4.487000000     3.551000000
H    -3.347000000    -5.350000000     4.206000000
C    -4.153000000    -4.503000000     2.314000000
O    -4.446000000    -5.702000000     1.767000000
C    -4.030000000    -6.034000000     0.530000000
C    -2.736000000    -5.825000000     0.055000000
H    -2.035000000    -5.280000000     0.683000000
C    -4.927000000    -6.729000000    -0.302000000
H    -5.967000000    -6.755000000     0.014000000
C    -4.546000000    -7.149000000    -1.570000000
H    -5.276000000    -7.637000000    -2.211000000
C    -3.262000000    -7.087000000    -1.951000000
H    -2.918000000    -7.387000000    -2.938000000
C    -2.369000000    -6.428000000    -1.141000000
O    -1.090000000    -6.339000000    -1.678000000
C    -0.649000000    -5.362000000    -2.532000000
C     0.630000000    -5.576000000    -3.048000000
H     1.213000000    -6.488000000    -3.149000000
C     1.253000000    -4.600000000    -3.756000000
O     2.493000000    -4.897000000    -4.289000000
C     3.484000000    -3.978000000    -4.312000000
C     4.165000000    -3.673000000    -5.496000000
H     3.815000000    -4.124000000    -6.421000000
C     5.202000000    -2.703000000    -5.547000000
H     5.600000000    -2.380000000    -6.505000000
C     5.614000000    -2.066000000    -4.395000000
H     6.355000000    -1.271000000    -4.412000000
C     5.024000000    -2.396000000    -3.199000000
C     4.022000000    -3.409000000    -3.176000000
H     3.497000000    -3.662000000    -2.259000000
C     1.958000000    -1.997000000     0.120000000
H     2.857000000    -2.514000000    -0.207000000
C     1.299000000    -0.937000000    -0.555000000
H     1.693000000    -0.658000000    -1.529000000
C     0.156000000    -0.310000000     0.046000000
H    -0.341000000     0.492000000    -0.505000000
C    -0.266000000    -0.764000000     1.299000000
H    -1.189000000    -0.362000000     1.710000000
C     0.369000000    -1.840000000     1.890000000
H     0.136000000    -2.149000000     2.905000000
C     1.410000000    -2.482000000     1.269000000
C     2.028000000    -3.661000000     1.953000000
O     1.558000000    -4.102000000     2.966000000
O     3.079000000    -4.087000000     1.568000000
O     3.905000000    -2.130000000     7.375000000
H     3.465000000    -2.519000000     6.619000000
H     4.674000000    -1.694000000     7.006000000
O    -0.417000000    -5.453000000     4.051000000
H     0.366000000    -5.030000000     3.696000000
H    -0.866000000    -4.758000000     4.532000000
O     4.629000000    -1.522000000     2.753000000
H     5.074000000    -1.866000000     1.979000000
H     3.805000000    -2.007000000     2.791000000
O     7.815000000    -4.761000000     1.254000000
H     7.023000000    -4.444000000     0.821000000
H     7.540000000    -5.562000000     1.700000000
O     7.101000000    -2.800000000     3.785000000
H     6.329000000    -3.324000000     3.569000000
H     6.746000000    -2.001000000     4.175000000
O     2.675000000    -7.825000000     3.698000000
H     2.306000000    -7.636000000     2.835000000
H     1.953000000    -8.225000000     4.184000000
O     2.650000000    -4.028000000     5.765000000
H     3.072000000    -4.601000000     5.125000000
H     1.932000000    -3.618000000     5.283000000
O     2.635000000    -4.958000000     8.304000000
H     2.671000000    -4.696000000     7.384000000
H     3.546000000    -4.935000000     8.596000000
O     7.142000000    -6.030000000     4.506000000
H     6.237000000    -5.720000000     4.479000000
H     7.670000000    -5.234000000     4.442000000
O    -1.477000000    -9.090000000     0.160000000
H    -1.129000000    -8.232000000     0.406000000
H    -0.870000000    -9.716000000     0.555000000
O     5.305000000    -3.023000000     0.607000000
H     5.360000000    -3.036000000    -0.348000000
H     4.505000000    -3.509000000     0.807000000
O     5.748000000    -0.567000000     5.002000000
H     5.141000000    -0.649000000     4.266000000
H     6.458000000    -0.020000000     4.667000000
O     4.443000000    -5.322000000     3.796000000
H     3.980000000    -6.152000000     3.690000000
H     4.262000000    -4.841000000     2.988000000
O     2.249000000    -6.648000000     1.271000000
H     2.480000000    -5.755000000     1.528000000
H     2.903000000    -6.885000000     0.614000000
O    -1.914000000    -8.647000000     3.379000000
H    -1.418000000    -8.523000000     4.189000000
H    -1.432000000    -8.142000000     2.724000000
O     6.903000000    -7.214000000     2.048000000
H     7.535000000    -7.917000000     1.901000000
H     6.732000000    -7.239000000     2.990000000
O     5.011000000    -6.942000000     0.124000000
H     5.330000000    -6.854000000     1.023000000
H     5.802000000    -6.921000000    -0.414000000
O    -0.291000000    -7.157000000     1.539000000
H    -0.406000000    -6.600000000     2.309000000
H     0.631000000    -7.054000000     1.305000000
O    -1.002000000    -7.696000000     6.212000000
H    -0.683000000    -7.426000000     7.073000000
H    -1.093000000    -6.879000000     5.723000000
