215
-1459.79305
C     0.524000000     2.118000000     4.960000000
H    -0.544000000     2.145000000     5.162000000
C     1.091000000     2.701000000     3.810000000
C     2.477000000     2.504000000     3.647000000
H     2.888000000     2.874000000     2.712000000
C     0.234000000     3.370000000     2.709000000
O    -0.943000000     4.035000000     3.184000000
H    -0.028000000     2.642000000     1.927000000
O     1.023000000     4.443000000     2.106000000
C     0.985000000     4.520000000     0.737000000
C     2.075000000     4.028000000     0.018000000
H     3.036000000     3.706000000     0.411000000
C     2.004000000     3.830000000    -1.380000000
O     3.120000000     3.316000000    -2.027000000
C     0.879000000     4.159000000    -2.082000000
C     0.764000000     4.113000000    -3.612000000
H     0.004000000     4.790000000    -4.008000000
C     0.289000000     2.686000000    -3.980000000
C    -1.075000000     2.437000000    -4.238000000
H    -1.831000000     3.215000000    -4.170000000
H     1.773000000     4.303000000    -3.983000000
C    -0.220000000     4.585000000    -1.349000000
H    -1.187000000     4.646000000    -1.842000000
C    -0.193000000     4.826000000     0.059000000
C    -1.438000000     5.370000000     0.657000000
H    -1.881000000     6.051000000    -0.072000000
H    -1.152000000     5.962000000     1.529000000
C    -2.345000000     4.297000000     1.168000000
C    -3.443000000     3.791000000     0.423000000
H    -3.591000000     4.167000000    -0.587000000
C    -2.123000000     3.708000000     2.434000000
C    -2.800000000     2.552000000     2.840000000
H    -2.522000000     2.172000000     3.820000000
C    -3.746000000     1.959000000     2.012000000
O    -4.220000000     0.689000000     2.412000000
C    -3.880000000    -0.429000000     1.542000000
C    -3.558000000    -1.733000000     2.320000000
C    -3.863000000    -2.910000000     1.792000000
H    -4.282000000    -2.958000000     0.790000000
C    -2.992000000    -1.568000000     3.604000000
H    -2.797000000    -0.572000000     3.993000000
O    -4.864000000    -0.704000000     0.583000000
H    -2.971000000    -0.127000000     1.001000000
C    -4.107000000     2.648000000     0.862000000
C    -5.163000000     2.104000000    -0.039000000
H    -5.670000000     2.895000000    -0.597000000
H    -6.010000000     1.692000000     0.514000000
C    -4.609000000     1.020000000    -0.933000000
C    -4.036000000     1.438000000    -2.174000000
H    -4.161000000     2.451000000    -2.548000000
C    -4.622000000    -0.336000000    -0.641000000
C    -4.129000000    -1.269000000    -1.538000000
H    -3.966000000    -2.300000000    -1.238000000
C    -3.577000000    -0.907000000    -2.746000000
O    -2.892000000    -1.799000000    -3.571000000
C    -1.425000000    -1.813000000    -3.536000000
C    -0.833000000    -3.151000000    -3.257000000
C    -1.591000000    -4.208000000    -2.764000000
H    -2.626000000    -4.038000000    -2.478000000
C     0.540000000    -3.376000000    -3.535000000
H     1.145000000    -2.696000000    -4.129000000
O    -0.966000000    -1.128000000    -4.732000000
H    -1.147000000    -1.172000000    -2.687000000
C    -3.563000000     0.454000000    -3.102000000
C    -3.046000000     0.846000000    -4.434000000
H    -3.628000000     1.723000000    -4.727000000
H    -3.249000000     0.127000000    -5.230000000
C    -1.516000000     1.161000000    -4.404000000
C    -0.587000000     0.140000000    -4.533000000
C     0.768000000     0.386000000    -4.330000000
H     1.440000000    -0.464000000    -4.414000000
C     1.230000000     1.653000000    -4.076000000
O     2.562000000     1.789000000    -3.885000000
C     3.053000000     1.872000000    -2.509000000
H     2.323000000     1.396000000    -1.837000000
C     4.389000000     1.079000000    -2.290000000
C     5.073000000     1.299000000    -1.081000000
H     4.607000000     1.990000000    -0.383000000
C     4.867000000     0.138000000    -3.195000000
H     4.404000000     0.051000000    -4.174000000
C     6.023000000    -0.610000000    -2.955000000
O     6.377000000    -1.657000000    -3.702000000
C     6.779000000    -0.373000000    -1.795000000
H     7.727000000    -0.866000000    -1.598000000
C     6.252000000     0.525000000    -0.821000000
O     6.931000000     0.740000000     0.379000000
C     6.482000000     1.669000000     1.329000000
C     5.817000000     1.174000000     2.481000000
H     5.625000000     0.104000000     2.504000000
C     6.712000000     2.993000000     1.114000000
H     7.214000000     3.375000000     0.229000000
C     6.253000000     3.898000000     2.097000000
H     6.361000000     4.977000000     2.034000000
C     5.609000000     3.418000000     3.301000000
H     5.152000000     4.191000000     3.914000000
C     5.444000000     2.088000000     3.452000000
O     4.621000000     1.611000000     4.450000000
C     3.261000000     1.875000000     4.612000000
C     2.697000000     1.393000000     5.791000000
H     3.306000000     0.977000000     6.589000000
C     1.305000000     1.463000000     5.923000000
O     0.757000000     0.927000000     7.103000000
C    -0.506000000     0.345000000     6.993000000
C    -0.699000000    -0.855000000     6.240000000
H     0.171000000    -1.293000000     5.757000000
C    -1.590000000     0.882000000     7.681000000
H    -1.429000000     1.701000000     8.377000000
C    -2.846000000     0.243000000     7.646000000
H    -3.668000000     0.758000000     8.136000000
C    -2.992000000    -0.975000000     6.942000000
H    -3.967000000    -1.444000000     6.840000000
C    -1.918000000    -1.516000000     6.271000000
O    -2.189000000    -2.713000000     5.629000000
C    -2.675000000    -2.720000000     4.371000000
C    -2.932000000    -3.977000000     3.801000000
H    -2.864000000    -4.940000000     4.302000000
C    -3.495000000    -4.047000000     2.534000000
O    -3.843000000    -5.330000000     2.116000000
C    -3.918000000    -5.622000000     0.792000000
C    -2.741000000    -5.844000000     0.075000000
H    -1.750000000    -5.745000000     0.510000000
C    -5.155000000    -5.796000000     0.219000000
H    -6.043000000    -5.584000000     0.808000000
C    -5.285000000    -6.139000000    -1.097000000
H    -6.225000000    -6.206000000    -1.638000000
C    -4.131000000    -6.272000000    -1.824000000
H    -4.309000000    -6.425000000    -2.885000000
C    -2.864000000    -6.234000000    -1.285000000
O    -1.743000000    -6.476000000    -2.053000000
C    -0.984000000    -5.442000000    -2.521000000
C     0.396000000    -5.548000000    -2.576000000
H     0.894000000    -6.482000000    -2.332000000
C     1.151000000    -4.581000000    -3.138000000
O     2.530000000    -4.578000000    -3.070000000
C     3.510000000    -3.911000000    -3.812000000
C     3.309000000    -3.960000000    -5.195000000
H     2.362000000    -4.399000000    -5.497000000
C     4.150000000    -3.288000000    -6.020000000
H     3.954000000    -3.391000000    -7.085000000
C     5.247000000    -2.659000000    -5.499000000
H     5.928000000    -2.087000000    -6.125000000
C     5.421000000    -2.562000000    -4.116000000
C     4.515000000    -3.170000000    -3.227000000
H     4.518000000    -3.029000000    -2.149000000
C     1.182000000    -2.548000000     0.228000000
H     1.723000000    -3.287000000    -0.357000000
C     0.693000000    -1.424000000    -0.466000000
H     0.930000000    -1.219000000    -1.506000000
C    -0.134000000    -0.562000000     0.276000000
H    -0.675000000     0.239000000    -0.294000000
C    -0.482000000    -0.776000000     1.593000000
H    -1.175000000    -0.121000000     2.114000000
C    -0.104000000    -1.948000000     2.214000000
H    -0.385000000    -2.127000000     3.249000000
C     0.805000000    -2.790000000     1.532000000
C     1.326000000    -4.051000000     2.146000000
O     0.965000000    -4.371000000     3.253000000
O     2.257000000    -4.633000000     1.656000000
O     0.507000000    -5.030000000     5.623000000
H     0.506000000    -4.671000000     4.736000000
H    -0.369000000    -5.400000000     5.732000000
O     2.612000000     0.080000000     1.736000000
H     1.913000000    -0.013000000     1.089000000
H     3.401000000    -0.215000000     1.281000000
O     1.527000000    -8.900000000     5.085000000
H     2.090000000    -8.872000000     4.311000000
H     1.136000000    -9.773000000     5.065000000
O     2.027000000    -3.175000000     6.873000000
H     2.070000000    -2.607000000     6.104000000
H     1.438000000    -3.884000000     6.615000000
O     0.004000000    -8.874000000    -0.034000000
H     0.305000000    -9.491000000     0.633000000
H     0.703000000    -8.223000000    -0.092000000
O     6.295000000    -5.067000000     2.854000000
H     6.757000000    -5.210000000     3.680000000
H     6.981000000    -4.822000000     2.234000000
O    -1.562000000    -8.570000000     4.221000000
H    -1.098000000    -7.998000000     3.610000000
H    -1.025000000    -8.560000000     5.014000000
O     4.288000000    -4.419000000     0.136000000
H     4.090000000    -5.140000000    -0.461000000
H     3.531000000    -4.376000000     0.720000000
O     2.204000000    -1.997000000     4.301000000
H     2.013000000    -2.842000000     3.891000000
H     1.998000000    -1.352000000     3.624000000
O     3.825000000    -5.247000000     3.700000000
H     3.158000000    -5.220000000     3.014000000
H     4.656000000    -5.207000000     3.227000000
O     2.002000000    -7.024000000     0.243000000
H     2.053000000    -6.108000000     0.516000000
H     2.457000000    -7.048000000    -0.599000000
O     6.803000000    -4.115000000    -0.684000000
H     5.989000000    -4.100000000    -0.181000000
H     7.487000000    -4.245000000    -0.028000000
O     3.289000000    -7.707000000     2.508000000
H     3.321000000    -6.869000000     2.969000000
H     2.788000000    -7.525000000     1.713000000
O     4.057000000    -6.718000000    -1.470000000
H     4.937000000    -6.871000000    -1.126000000
H     4.179000000    -6.655000000    -2.418000000
O     2.165000000    -6.972000000     6.855000000
H     1.774000000    -7.722000000     6.407000000
H     1.721000000    -6.211000000     6.481000000
O     4.766000000    -0.955000000     4.864000000
H     3.919000000    -1.400000000     4.834000000
H     4.550000000    -0.025000000     4.795000000
O     4.486000000    -5.916000000     6.618000000
H     3.717000000    -6.247000000     7.083000000
H     4.208000000    -5.863000000     5.704000000
O     4.621000000    -2.241000000     2.123000000
H     4.402000000    -2.674000000     2.948000000
H     4.359000000    -2.866000000     1.447000000
O     0.260000000    -7.033000000     2.928000000
H     0.676000000    -6.179000000     3.043000000
H     0.654000000    -7.387000000     2.131000000
