215
-1449.69015
C     0.999000000     0.868000000     4.644000000
H    -0.081000000     0.753000000     4.662000000
C     1.547000000     1.969000000     3.927000000
C     2.912000000     2.065000000     3.724000000
H     3.326000000     2.858000000     3.107000000
C     0.615000000     2.878000000     3.155000000
O    -0.655000000     2.945000000     3.844000000
H     0.419000000     2.307000000     2.236000000
O     1.155000000     4.134000000     2.809000000
C     1.002000000     4.492000000     1.502000000
C     2.098000000     4.196000000     0.710000000
H     3.031000000     3.775000000     1.077000000
C     1.891000000     4.228000000    -0.670000000
O     2.891000000     3.851000000    -1.536000000
C     0.682000000     4.790000000    -1.208000000
C     0.279000000     4.711000000    -2.741000000
H    -0.527000000     5.417000000    -2.952000000
C    -0.107000000     3.319000000    -3.182000000
C    -1.448000000     3.109000000    -3.439000000
H    -2.155000000     3.910000000    -3.236000000
H     1.052000000     5.098000000    -3.408000000
C    -0.284000000     5.214000000    -0.280000000
H    -1.234000000     5.645000000    -0.584000000
C    -0.170000000     4.982000000     1.067000000
C    -1.397000000     5.202000000     1.980000000
H    -1.936000000     6.020000000     1.498000000
H    -1.100000000     5.379000000     3.016000000
C    -2.225000000     3.907000000     2.163000000
C    -3.362000000     3.600000000     1.330000000
H    -3.661000000     4.285000000     0.540000000
C    -1.803000000     2.887000000     3.078000000
C    -2.500000000     1.679000000     3.094000000
H    -2.171000000     0.839000000     3.700000000
C    -3.593000000     1.432000000     2.257000000
O    -4.333000000     0.326000000     2.418000000
C    -4.114000000    -0.787000000     1.510000000
C    -4.047000000    -2.178000000     2.172000000
C    -4.424000000    -3.299000000     1.484000000
H    -4.809000000    -3.266000000     0.468000000
C    -3.295000000    -2.323000000     3.363000000
H    -2.779000000    -1.447000000     3.746000000
O    -5.261000000    -0.653000000     0.635000000
H    -3.184000000    -0.682000000     0.932000000
C    -3.981000000     2.343000000     1.339000000
C    -5.198000000     2.134000000     0.493000000
H    -5.671000000     3.013000000     0.050000000
H    -5.938000000     1.658000000     1.140000000
C    -4.906000000     1.234000000    -0.687000000
C    -4.436000000     1.745000000    -1.865000000
H    -4.223000000     2.803000000    -1.995000000
C    -4.964000000    -0.137000000    -0.586000000
C    -4.522000000    -0.976000000    -1.561000000
H    -4.443000000    -2.048000000    -1.402000000
C    -3.942000000    -0.388000000    -2.695000000
O    -3.324000000    -1.246000000    -3.535000000
C    -1.842000000    -1.281000000    -3.462000000
C    -1.128000000    -2.645000000    -3.524000000
C    -1.407000000    -3.620000000    -2.596000000
H    -2.209000000    -3.522000000    -1.869000000
C    -0.125000000    -2.877000000    -4.443000000
H     0.136000000    -2.072000000    -5.125000000
O    -1.344000000    -0.448000000    -4.478000000
H    -1.527000000    -0.826000000    -2.511000000
C    -3.838000000     1.032000000    -2.873000000
C    -3.334000000     1.667000000    -4.180000000
H    -3.852000000     2.569000000    -4.513000000
H    -3.596000000     0.898000000    -4.910000000
C    -1.851000000     1.833000000    -3.989000000
C    -0.944000000     0.815000000    -4.134000000
C     0.392000000     1.040000000    -3.939000000
H     1.195000000     0.322000000    -4.086000000
C     0.788000000     2.323000000    -3.495000000
O     2.082000000     2.587000000    -3.298000000
C     2.643000000     2.526000000    -2.016000000
H     2.018000000     1.958000000    -1.311000000
C     3.964000000     1.750000000    -2.100000000
C     5.014000000     1.990000000    -1.172000000
H     4.795000000     2.706000000    -0.383000000
C     4.187000000     0.706000000    -2.975000000
H     3.443000000     0.444000000    -3.721000000
C     5.308000000    -0.101000000    -2.946000000
O     5.487000000    -1.195000000    -3.785000000
C     6.326000000     0.135000000    -1.989000000
H     7.231000000    -0.464000000    -1.938000000
C     6.139000000     1.185000000    -1.091000000
O     7.112000000     1.268000000    -0.032000000
C     6.899000000     1.865000000     1.154000000
C     5.855000000     1.454000000     2.014000000
H     5.265000000     0.573000000     1.773000000
C     7.770000000     2.886000000     1.547000000
H     8.534000000     3.167000000     0.827000000
C     7.591000000     3.509000000     2.788000000
H     8.231000000     4.344000000     3.061000000
C     6.608000000     3.091000000     3.675000000
H     6.452000000     3.703000000     4.560000000
C     5.827000000     1.995000000     3.354000000
O     5.151000000     1.468000000     4.438000000
C     3.762000000     1.173000000     4.457000000
C     3.290000000     0.183000000     5.339000000
H     3.934000000    -0.463000000     5.930000000
C     1.903000000     0.113000000     5.412000000
O     1.400000000    -1.027000000     6.093000000
C     0.070000000    -1.231000000     6.188000000
C    -0.493000000    -2.249000000     5.527000000
H     0.011000000    -2.841000000     4.767000000
C    -0.753000000    -0.442000000     7.089000000
H    -0.371000000     0.412000000     7.644000000
C    -2.143000000    -0.684000000     7.257000000
H    -2.790000000    -0.099000000     7.905000000
C    -2.614000000    -1.820000000     6.571000000
H    -3.678000000    -2.021000000     6.660000000
C    -1.790000000    -2.598000000     5.797000000
O    -2.366000000    -3.643000000     5.174000000
C    -3.102000000    -3.548000000     4.002000000
C    -3.565000000    -4.672000000     3.272000000
H    -3.308000000    -5.625000000     3.728000000
C    -4.208000000    -4.540000000     2.105000000
O    -4.553000000    -5.705000000     1.478000000
C    -4.003000000    -6.106000000     0.307000000
C    -2.701000000    -5.658000000    -0.028000000
H    -2.205000000    -5.009000000     0.689000000
C    -4.675000000    -7.046000000    -0.462000000
H    -5.706000000    -7.292000000    -0.221000000
C    -4.063000000    -7.368000000    -1.722000000
H    -4.566000000    -7.933000000    -2.502000000
C    -2.761000000    -6.951000000    -2.020000000
H    -2.208000000    -7.317000000    -2.881000000
C    -2.090000000    -6.058000000    -1.189000000
O    -0.806000000    -5.711000000    -1.520000000
C    -0.594000000    -4.780000000    -2.497000000
C     0.516000000    -4.938000000    -3.358000000
H     1.176000000    -5.766000000    -3.114000000
C     0.772000000    -3.954000000    -4.322000000
O     1.822000000    -4.098000000    -5.186000000
C     2.772000000    -3.158000000    -5.494000000
C     2.770000000    -2.572000000    -6.776000000
H     2.038000000    -2.860000000    -7.525000000
C     3.676000000    -1.563000000    -7.039000000
H     3.602000000    -1.110000000    -8.025000000
C     4.584000000    -1.121000000    -6.056000000
H     5.204000000    -0.269000000    -6.326000000
C     4.605000000    -1.657000000    -4.747000000
C     3.615000000    -2.643000000    -4.494000000
H     3.431000000    -3.094000000    -3.522000000
C     1.262000000    -2.531000000    -0.380000000
H     1.930000000    -3.141000000    -0.983000000
C     0.854000000    -1.209000000    -0.602000000
H     1.213000000    -0.727000000    -1.508000000
C    -0.126000000    -0.648000000     0.116000000
H    -0.498000000     0.334000000    -0.248000000
C    -0.548000000    -1.223000000     1.315000000
H    -1.285000000    -0.665000000     1.886000000
C    -0.191000000    -2.558000000     1.641000000
H    -0.643000000    -3.163000000     2.422000000
C     0.708000000    -3.211000000     0.726000000
C     1.202000000    -4.545000000     1.061000000
O     1.301000000    -4.859000000     2.193000000
O     1.714000000    -5.257000000     0.243000000
O     5.301000000    -1.627000000     0.129000000
H     5.796000000    -2.432000000    -0.022000000
H     5.410000000    -1.124000000    -0.678000000
O     2.574000000    -7.752000000     3.238000000
H     1.732000000    -7.474000000     3.599000000
H     3.198000000    -7.609000000     3.949000000
O     1.061000000    -7.685000000    -0.642000000
H     1.012000000    -6.781000000    -0.331000000
H     1.386000000    -7.612000000    -1.540000000
O     0.305000000    -5.100000000     7.684000000
H     0.071000000    -5.437000000     6.819000000
H     1.260000000    -5.050000000     7.672000000
O     3.366000000    -8.869000000     0.862000000
H     2.712000000    -8.869000000     0.163000000
H     2.996000000    -8.298000000     1.535000000
O    -2.872000000    -8.568000000     2.840000000
H    -2.694000000    -8.570000000     1.900000000
H    -2.011000000    -8.474000000     3.247000000
O     7.848000000    -4.882000000     0.243000000
H     7.074000000    -4.597000000    -0.244000000
H     7.822000000    -5.838000000     0.197000000
O     3.237000000    -7.532000000    -3.154000000
H     3.024000000    -7.203000000    -4.027000000
H     3.093000000    -8.477000000    -3.212000000
O     4.241000000    -6.041000000     1.149000000
H     4.165000000    -6.987000000     1.021000000
H     3.342000000    -5.718000000     1.087000000
O     0.791000000    -5.715000000     4.974000000
H     0.290000000    -6.094000000     4.251000000
H     1.239000000    -4.964000000     4.586000000
O     4.957000000    -5.993000000     3.715000000
H     4.381000000    -5.235000000     3.820000000
H     4.766000000    -6.318000000     2.835000000
O    -0.074000000    -9.469000000     0.924000000
H    -0.438000000   -10.147000000     0.354000000
H     0.420000000    -8.899000000     0.334000000
O     3.592000000    -4.890000000    -1.783000000
H     3.082000000    -5.218000000    -1.042000000
H     3.650000000    -5.634000000    -2.382000000
O    -0.185000000    -7.439000000     2.879000000
H     0.369000000    -6.835000000     2.384000000
H     0.016000000    -8.301000000     2.515000000
O     2.794000000    -4.034000000     7.008000000
H     2.584000000    -3.919000000     6.081000000
H     3.747000000    -3.949000000     7.050000000
O     6.496000000    -3.459000000     4.731000000
H     7.198000000    -3.567000000     4.089000000
H     5.759000000    -3.117000000     4.225000000
O     6.109000000    -3.638000000    -1.732000000
H     5.190000000    -3.906000000    -1.761000000
H     6.415000000    -3.731000000    -2.634000000
O     2.803000000    -3.891000000     4.014000000
H     3.149000000    -3.074000000     3.656000000
H     2.352000000    -4.303000000     3.277000000
O     4.875000000    -1.941000000     2.933000000
H     4.729000000    -1.803000000     1.997000000
H     5.102000000    -1.074000000     3.270000000
