215
-1450.67708
C     0.547000000     2.975000000     4.498000000
H    -0.522000000     3.043000000     4.685000000
C     0.988000000     3.518000000     3.257000000
C     2.332000000     3.386000000     2.978000000
H     2.630000000     3.696000000     1.980000000
C     0.085000000     3.830000000     2.066000000
O    -1.336000000     4.190000000     2.526000000
H     0.129000000     2.941000000     1.419000000
O     0.578000000     4.911000000     1.218000000
C     0.329000000     4.913000000    -0.166000000
C     1.405000000     4.493000000    -0.865000000
H     2.385000000     4.493000000    -0.395000000
C     1.219000000     4.043000000    -2.165000000
O     2.320000000     3.528000000    -2.847000000
C    -0.057000000     4.023000000    -2.762000000
C    -0.215000000     3.554000000    -4.198000000
H    -1.138000000     3.985000000    -4.591000000
C    -0.354000000     2.071000000    -4.341000000
C    -1.631000000     1.519000000    -4.603000000
H    -2.495000000     2.176000000    -4.555000000
H     0.563000000     3.918000000    -4.872000000
C    -1.186000000     4.550000000    -2.083000000
H    -2.168000000     4.472000000    -2.543000000
C    -0.970000000     4.876000000    -0.735000000
C    -2.191000000     5.210000000     0.119000000
H    -2.933000000     5.624000000    -0.568000000
H    -1.859000000     5.973000000     0.826000000
C    -2.817000000     3.967000000     0.717000000
C    -3.668000000     3.187000000    -0.037000000
H    -3.971000000     3.505000000    -1.031000000
C    -2.306000000     3.481000000     1.908000000
C    -2.644000000     2.159000000     2.382000000
H    -2.111000000     1.716000000     3.220000000
C    -3.730000000     1.576000000     1.790000000
O    -4.147000000     0.393000000     2.313000000
C    -3.649000000    -0.812000000     1.704000000
C    -3.314000000    -1.857000000     2.813000000
C    -3.327000000    -3.223000000     2.550000000
H    -3.763000000    -3.742000000     1.700000000
C    -2.898000000    -1.364000000     4.071000000
H    -2.820000000    -0.288000000     4.205000000
O    -4.661000000    -1.338000000     0.830000000
H    -2.701000000    -0.731000000     1.152000000
C    -4.218000000     2.038000000     0.559000000
C    -5.199000000     1.274000000    -0.260000000
H    -5.704000000     2.017000000    -0.882000000
H    -5.944000000     0.921000000     0.455000000
C    -4.553000000     0.089000000    -1.080000000
C    -4.214000000     0.368000000    -2.385000000
H    -4.624000000     1.269000000    -2.834000000
C    -4.397000000    -1.146000000    -0.537000000
C    -3.899000000    -2.180000000    -1.317000000
H    -3.645000000    -3.075000000    -0.755000000
C    -3.521000000    -1.971000000    -2.663000000
O    -2.750000000    -2.921000000    -3.313000000
C    -1.368000000    -2.692000000    -3.314000000
C    -0.558000000    -4.005000000    -3.047000000
C    -1.212000000    -4.988000000    -2.308000000
H    -2.294000000    -5.025000000    -2.210000000
C     0.828000000    -3.995000000    -3.208000000
H     1.323000000    -3.254000000    -3.829000000
O    -0.941000000    -2.112000000    -4.548000000
H    -1.144000000    -1.965000000    -2.520000000
C    -3.694000000    -0.652000000    -3.207000000
C    -3.290000000    -0.329000000    -4.616000000
H    -3.989000000     0.398000000    -5.035000000
H    -3.363000000    -1.180000000    -5.296000000
C    -1.836000000     0.151000000    -4.614000000
C    -0.783000000    -0.731000000    -4.600000000
C     0.492000000    -0.234000000    -4.405000000
H     1.327000000    -0.923000000    -4.309000000
C     0.705000000     1.145000000    -4.299000000
O     2.032000000     1.498000000    -4.122000000
C     2.460000000     2.047000000    -2.830000000
H     1.790000000     1.719000000    -2.022000000
C     3.846000000     1.635000000    -2.512000000
C     4.683000000     2.586000000    -2.006000000
H     4.272000000     3.503000000    -1.591000000
C     4.310000000     0.392000000    -2.846000000
H     3.608000000    -0.317000000    -3.279000000
C     5.670000000    -0.019000000    -2.608000000
O     6.099000000    -1.354000000    -2.776000000
C     6.492000000     0.926000000    -1.981000000
H     7.481000000     0.611000000    -1.660000000
C     5.964000000     2.184000000    -1.691000000
O     6.735000000     3.022000000    -0.937000000
C     6.436000000     3.440000000     0.373000000
C     5.583000000     2.723000000     1.214000000
H     5.106000000     1.790000000     0.926000000
C     6.949000000     4.622000000     0.842000000
H     7.663000000     5.139000000     0.206000000
C     6.705000000     5.077000000     2.135000000
H     7.085000000     5.982000000     2.600000000
C     5.826000000     4.338000000     2.969000000
H     5.675000000     4.585000000     4.017000000
C     5.301000000     3.157000000     2.527000000
O     4.515000000     2.333000000     3.279000000
C     3.262000000     2.644000000     3.748000000
C     2.810000000     2.206000000     5.007000000
H     3.463000000     1.740000000     5.740000000
C     1.443000000     2.369000000     5.344000000
O     0.970000000     1.836000000     6.590000000
C    -0.300000000     1.312000000     6.765000000
C    -0.468000000    -0.090000000     6.475000000
H     0.397000000    -0.698000000     6.223000000
C    -1.361000000     2.104000000     7.166000000
H    -1.275000000     3.170000000     7.363000000
C    -2.629000000     1.480000000     7.257000000
H    -3.473000000     2.046000000     7.641000000
C    -2.815000000     0.143000000     6.900000000
H    -3.808000000    -0.292000000     6.977000000
C    -1.694000000    -0.713000000     6.657000000
O    -1.871000000    -1.980000000     6.180000000
C    -2.450000000    -2.313000000     5.009000000
C    -2.491000000    -3.698000000     4.726000000
H    -2.225000000    -4.413000000     5.500000000
C    -2.885000000    -4.147000000     3.521000000
O    -2.972000000    -5.481000000     3.250000000
C    -3.043000000    -6.115000000     2.066000000
C    -2.058000000    -6.057000000     1.102000000
H    -1.129000000    -5.508000000     1.232000000
C    -4.210000000    -6.851000000     1.820000000
H    -5.039000000    -6.710000000     2.510000000
C    -4.327000000    -7.563000000     0.673000000
H    -5.239000000    -8.098000000     0.421000000
C    -3.172000000    -7.640000000    -0.220000000
H    -3.241000000    -8.194000000    -1.153000000
C    -2.146000000    -6.818000000    -0.073000000
O    -1.127000000    -6.932000000    -0.955000000
C    -0.469000000    -5.885000000    -1.587000000
C     0.891000000    -5.897000000    -1.738000000
H     1.500000000    -6.678000000    -1.289000000
C     1.538000000    -5.026000000    -2.578000000
O     2.912000000    -4.904000000    -2.479000000
C     3.732000000    -4.111000000    -3.279000000
C     3.726000000    -4.216000000    -4.685000000
H     3.093000000    -5.013000000    -5.066000000
C     4.472000000    -3.344000000    -5.514000000
H     4.383000000    -3.447000000    -6.592000000
C     5.234000000    -2.350000000    -4.857000000
H     5.781000000    -1.664000000    -5.498000000
C     5.372000000    -2.311000000    -3.450000000
C     4.581000000    -3.170000000    -2.678000000
H     4.597000000    -3.184000000    -1.591000000
C     0.248000000    -3.020000000     2.306000000
H     0.162000000    -4.103000000     2.327000000
C    -0.168000000    -2.464000000     1.137000000
H    -0.413000000    -3.173000000     0.349000000
C    -0.099000000    -1.030000000     1.062000000
H    -0.247000000    -0.493000000     0.046000000
C     0.345000000    -0.309000000     2.143000000
H     0.558000000     0.755000000     2.070000000
C     0.720000000    -0.912000000     3.330000000
H     1.054000000    -0.345000000     4.196000000
C     0.693000000    -2.299000000     3.392000000
C     1.296000000    -3.046000000     4.555000000
O     1.947000000    -2.462000000     5.379000000
O     1.225000000    -4.262000000     4.558000000
O    -1.352000000    -3.719000000     8.344000000
H    -0.640000000    -4.347000000     8.467000000
H    -0.980000000    -3.042000000     7.778000000
O     2.362000000    -2.436000000     7.906000000
H     2.098000000    -2.476000000     6.987000000
H     2.101000000    -1.560000000     8.193000000
O     0.320000000    -6.538000000     3.572000000
H     0.576000000    -5.677000000     3.902000000
H    -0.300000000    -6.869000000     4.222000000
O    -0.480000000    -6.737000000     8.385000000
H     0.007000000    -7.449000000     8.800000000
H    -0.022000000    -6.582000000     7.559000000
O     5.454000000    -3.480000000     5.433000000
H     4.963000000    -2.809000000     5.907000000
H     5.884000000    -3.005000000     4.722000000
O    -2.985000000    -6.493000000     7.520000000
H    -3.495000000    -5.880000000     8.050000000
H    -2.074000000    -6.259000000     7.695000000
O     5.278000000    -7.232000000     2.869000000
H     4.486000000    -6.778000000     3.157000000
H     5.552000000    -6.760000000     2.083000000
O    -1.943000000    -7.234000000     4.939000000
H    -2.298000000    -6.634000000     4.283000000
H    -2.555000000    -7.178000000     5.672000000
O     4.362000000    -0.555000000     3.001000000
H     4.835000000    -1.074000000     2.350000000
H     4.310000000     0.320000000     2.618000000
O     3.841000000    -5.157000000     3.870000000
H     4.353000000    -4.550000000     4.404000000
H     2.948000000    -5.078000000     4.206000000
O     4.200000000    -1.003000000     5.732000000
H     4.193000000    -0.635000000     4.849000000
H     3.461000000    -1.611000000     5.745000000
O     1.971000000    -5.233000000     6.890000000
H     2.003000000    -4.439000000     7.423000000
H     1.677000000    -4.932000000     6.030000000
O     3.407000000    -4.658000000     0.715000000
H     3.074000000    -3.762000000     0.660000000
H     3.843000000    -4.700000000     1.566000000
O     1.435000000     0.073000000     8.785000000
H     0.620000000    -0.311000000     9.106000000
H     1.188000000     0.952000000     8.496000000
O     3.685000000    -3.788000000    10.040000000
H     4.552000000    -3.441000000     9.829000000
H     3.145000000    -3.558000000     9.284000000
O     2.352000000    -7.785000000     6.233000000
H     1.489000000    -7.908000000     5.837000000
H     2.269000000    -6.978000000     6.742000000
O     5.557000000    -1.075000000     8.465000000
H     5.821000000    -1.965000000     8.231000000
H     4.782000000    -0.907000000     7.929000000
O     4.969000000    -7.208000000     5.735000000
H     4.027000000    -7.341000000     5.627000000
H     5.301000000    -7.113000000     4.842000000
O     1.621000000    -6.946000000     1.256000000
H     1.136000000    -6.798000000     2.068000000
H     1.896000000    -6.072000000     0.979000000
