215
-1454.47572
C     0.883000000     2.393000000     4.178000000
H    -0.175000000     2.164000000     4.072000000
C     1.411000000     3.210000000     3.155000000
C     2.794000000     3.335000000     3.067000000
H     3.306000000     3.832000000     2.247000000
C     0.566000000     3.643000000     1.957000000
O    -0.779000000     4.042000000     2.365000000
H     0.470000000     2.750000000     1.322000000
O     1.297000000     4.639000000     1.197000000
C     1.191000000     4.471000000    -0.186000000
C     2.259000000     3.804000000    -0.791000000
H     3.176000000     3.596000000    -0.247000000
C     2.230000000     3.525000000    -2.118000000
O     3.262000000     2.732000000    -2.561000000
C     1.052000000     3.707000000    -2.885000000
C     0.962000000     3.488000000    -4.370000000
H     0.257000000     4.133000000    -4.898000000
C     0.400000000     2.055000000    -4.486000000
C    -1.014000000     1.866000000    -4.607000000
H    -1.739000000     2.672000000    -4.687000000
H     1.993000000     3.601000000    -4.709000000
C    -0.056000000     4.270000000    -2.207000000
H    -0.970000000     4.288000000    -2.795000000
C    -0.002000000     4.619000000    -0.893000000
C    -1.283000000     5.257000000    -0.249000000
H    -1.995000000     5.702000000    -0.948000000
H    -0.894000000     6.074000000     0.361000000
C    -2.258000000     4.318000000     0.525000000
C    -3.441000000     3.948000000    -0.066000000
H    -3.796000000     4.450000000    -0.962000000
C    -1.917000000     3.712000000     1.707000000
C    -2.699000000     2.702000000     2.280000000
H    -2.298000000     2.136000000     3.117000000
C    -3.848000000     2.315000000     1.673000000
O    -4.505000000     1.219000000     2.222000000
C    -4.136000000    -0.090000000     1.678000000
C    -4.178000000    -1.011000000     2.800000000
C    -4.318000000    -2.381000000     2.574000000
H    -4.466000000    -2.760000000     1.566000000
C    -3.833000000    -0.530000000     4.128000000
H    -3.619000000     0.502000000     4.396000000
O    -5.061000000    -0.539000000     0.696000000
H    -3.140000000    -0.025000000     1.218000000
C    -4.181000000     2.878000000     0.474000000
C    -5.308000000     2.215000000    -0.362000000
H    -5.808000000     2.860000000    -1.088000000
H    -6.130000000     1.917000000     0.293000000
C    -4.736000000     1.010000000    -1.148000000
C    -4.099000000     1.248000000    -2.362000000
H    -4.160000000     2.249000000    -2.782000000
C    -4.684000000    -0.310000000    -0.617000000
C    -4.222000000    -1.357000000    -1.379000000
H    -4.171000000    -2.345000000    -0.930000000
C    -3.711000000    -1.132000000    -2.643000000
O    -3.109000000    -2.231000000    -3.210000000
C    -1.668000000    -2.197000000    -3.219000000
C    -1.049000000    -3.474000000    -2.813000000
C    -1.580000000    -4.133000000    -1.730000000
H    -2.438000000    -3.734000000    -1.194000000
C     0.111000000    -3.945000000    -3.417000000
H     0.500000000    -3.371000000    -4.255000000
O    -1.238000000    -1.724000000    -4.467000000
H    -1.263000000    -1.477000000    -2.492000000
C    -3.690000000     0.196000000    -3.150000000
C    -3.071000000     0.467000000    -4.492000000
H    -3.497000000     1.386000000    -4.901000000
H    -3.347000000    -0.274000000    -5.245000000
C    -1.518000000     0.593000000    -4.529000000
C    -0.656000000    -0.528000000    -4.597000000
C     0.757000000    -0.355000000    -4.489000000
H     1.432000000    -1.199000000    -4.372000000
C     1.294000000     0.911000000    -4.283000000
O     2.635000000     0.940000000    -3.990000000
C     3.047000000     1.303000000    -2.719000000
H     2.289000000     1.030000000    -1.970000000
C     4.265000000     0.581000000    -2.394000000
C     4.965000000     0.948000000    -1.255000000
H     4.752000000     1.829000000    -0.656000000
C     4.565000000    -0.585000000    -3.142000000
H     4.078000000    -0.899000000    -4.061000000
C     5.505000000    -1.476000000    -2.569000000
O     5.847000000    -2.618000000    -3.237000000
C     6.160000000    -1.202000000    -1.398000000
H     6.875000000    -1.930000000    -1.023000000
C     5.943000000     0.032000000    -0.781000000
O     6.481000000     0.178000000     0.479000000
C     6.591000000     1.342000000     1.168000000
C     5.700000000     1.510000000     2.282000000
H     4.903000000     0.796000000     2.474000000
C     7.397000000     2.385000000     0.798000000
H     8.046000000     2.153000000    -0.042000000
C     7.545000000     3.555000000     1.513000000
H     8.208000000     4.346000000     1.175000000
C     6.712000000     3.716000000     2.606000000
H     6.764000000     4.582000000     3.261000000
C     5.763000000     2.742000000     2.945000000
O     4.952000000     3.007000000     4.080000000
C     3.613000000     2.853000000     4.078000000
C     3.007000000     2.081000000     5.056000000
H     3.593000000     1.442000000     5.711000000
C     1.600000000     1.939000000     5.196000000
O     1.087000000     1.018000000     6.085000000
C    -0.180000000     1.080000000     6.531000000
C    -1.063000000     0.032000000     6.212000000
H    -0.823000000    -0.849000000     5.623000000
C    -0.613000000     2.053000000     7.444000000
H     0.134000000     2.824000000     7.617000000
C    -1.940000000     1.980000000     7.947000000
H    -2.243000000     2.631000000     8.763000000
C    -2.812000000     0.972000000     7.580000000
H    -3.759000000     0.784000000     8.079000000
C    -2.395000000     0.035000000     6.683000000
O    -3.183000000    -1.122000000     6.389000000
C    -3.675000000    -1.489000000     5.142000000
C    -3.850000000    -2.838000000     4.906000000
H    -3.729000000    -3.581000000     5.690000000
C    -4.168000000    -3.274000000     3.621000000
O    -4.406000000    -4.581000000     3.381000000
C    -4.186000000    -5.185000000     2.193000000
C    -2.857000000    -5.279000000     1.620000000
H    -2.132000000    -4.732000000     2.216000000
C    -5.237000000    -5.917000000     1.624000000
H    -6.199000000    -5.938000000     2.130000000
C    -4.998000000    -6.504000000     0.350000000
H    -5.792000000    -7.141000000    -0.030000000
C    -3.715000000    -6.433000000    -0.224000000
H    -3.568000000    -6.972000000    -1.157000000
C    -2.640000000    -5.919000000     0.396000000
O    -1.382000000    -5.907000000    -0.099000000
C    -0.917000000    -5.290000000    -1.251000000
C     0.277000000    -5.691000000    -1.826000000
H     0.817000000    -6.551000000    -1.438000000
C     0.772000000    -5.022000000    -2.921000000
O     1.957000000    -5.397000000    -3.486000000
C     2.831000000    -4.561000000    -4.122000000
C     2.992000000    -4.749000000    -5.453000000
H     2.365000000    -5.465000000    -5.978000000
C     4.048000000    -4.107000000    -6.098000000
H     4.057000000    -4.162000000    -7.184000000
C     5.038000000    -3.430000000    -5.394000000
H     5.972000000    -3.116000000    -5.852000000
C     4.933000000    -3.284000000    -4.008000000
C     3.818000000    -3.788000000    -3.393000000
H     3.739000000    -3.656000000    -2.317000000
C     1.737000000    -0.606000000     1.985000000
H     2.124000000    -0.514000000     2.997000000
C     0.622000000     0.080000000     1.487000000
H     0.139000000     0.812000000     2.130000000
C     0.151000000    -0.123000000     0.206000000
H    -0.690000000     0.538000000    -0.179000000
C     0.851000000    -0.923000000    -0.745000000
H     0.547000000    -1.003000000    -1.785000000
C     1.977000000    -1.621000000    -0.258000000
H     2.511000000    -2.213000000    -0.997000000
C     2.435000000    -1.487000000     1.091000000
C     3.624000000    -2.274000000     1.488000000
O     4.420000000    -2.664000000     0.641000000
O     3.775000000    -2.507000000     2.690000000
O     7.240000000    -4.469000000    -1.700000000
H     8.065000000    -4.279000000    -1.253000000
H     6.611000000    -3.864000000    -1.308000000
O     6.539000000    -5.356000000     1.302000000
H     6.496000000    -4.876000000     2.129000000
H     7.282000000    -4.970000000     0.838000000
O     7.611000000    -2.156000000     5.105000000
H     8.006000000    -3.015000000     5.256000000
H     8.184000000    -1.739000000     4.462000000
O     4.265000000    -7.917000000     1.185000000
H     4.378000000    -7.746000000     2.120000000
H     4.658000000    -7.159000000     0.754000000
O     2.325000000    -1.885000000     6.174000000
H     2.203000000    -2.650000000     5.611000000
H     3.146000000    -1.495000000     5.873000000
O     4.203000000    -5.096000000    -0.453000000
H     4.180000000    -4.157000000    -0.271000000
H     5.056000000    -5.383000000    -0.126000000
O     5.308000000    -4.291000000     4.040000000
H     4.858000000    -3.650000000     3.489000000
H     5.366000000    -3.871000000     4.898000000
O     2.086000000    -5.645000000     1.670000000
H     2.709000000    -5.397000000     0.987000000
H     2.576000000    -6.240000000     2.237000000
O     0.511000000    -7.106000000     3.754000000
H     0.876000000    -6.284000000     3.425000000
H    -0.130000000    -7.364000000     3.092000000
O    -0.106000000    -3.685000000     1.409000000
H     0.436000000    -4.474000000     1.392000000
H     0.514000000    -2.966000000     1.288000000
O     6.210000000    -3.563000000     7.040000000
H     6.876000000    -4.199000000     7.301000000
H     6.656000000    -2.992000000     6.413000000
O     6.473000000    -6.818000000     4.036000000
H     6.076000000    -6.007000000     4.354000000
H     6.615000000    -6.666000000     3.102000000
O    -0.447000000    -4.159000000     4.290000000
H    -0.482000000    -3.771000000     3.416000000
H     0.487000000    -4.213000000     4.491000000
O     3.393000000    -7.331000000     3.492000000
H     3.733000000    -7.021000000     4.332000000
H     2.649000000    -7.887000000     3.725000000
O     7.285000000    -6.938000000    -1.085000000
H     6.929000000    -7.495000000    -1.777000000
H     7.153000000    -6.046000000    -1.404000000
O     4.733000000    -1.224000000     4.924000000
H     5.631000000    -1.555000000     4.948000000
H     4.296000000    -1.766000000     4.266000000
O     9.458000000    -3.045000000     2.577000000
H     8.652000000    -2.894000000     2.083000000
H     9.166000000    -3.440000000     3.399000000
O     7.019000000    -2.540000000     1.327000000
H     7.098000000    -1.627000000     1.052000000
H     6.089000000    -2.741000000     1.229000000
O     2.500000000    -4.442000000     4.818000000
H     3.139000000    -5.032000000     5.218000000
H     2.980000000    -4.014000000     4.109000000
