215
-1457.35552
C     0.175000000     2.937000000     3.806000000
H    -0.786000000     2.474000000     3.595000000
C     0.790000000     3.799000000     2.843000000
C     2.119000000     4.161000000     3.041000000
H     2.718000000     4.799000000     2.396000000
C     0.153000000     4.132000000     1.553000000
O    -1.156000000     4.580000000     1.686000000
H     0.023000000     3.230000000     0.938000000
O     0.806000000     5.168000000     0.762000000
C     0.991000000     4.871000000    -0.541000000
C     2.190000000     4.226000000    -0.904000000
H     2.982000000     4.293000000    -0.162000000
C     2.245000000     3.642000000    -2.162000000
O     3.362000000     2.866000000    -2.406000000
C     1.227000000     3.769000000    -3.096000000
C     1.274000000     3.130000000    -4.550000000
H     0.616000000     3.671000000    -5.233000000
C     0.767000000     1.722000000    -4.550000000
C    -0.574000000     1.370000000    -4.737000000
H    -1.213000000     2.236000000    -4.891000000
H     2.275000000     3.131000000    -4.987000000
C     0.014000000     4.394000000    -2.744000000
H    -0.784000000     4.431000000    -3.482000000
C    -0.125000000     4.865000000    -1.437000000
C    -1.477000000     5.361000000    -0.976000000
H    -1.930000000     5.861000000    -1.835000000
H    -1.321000000     6.221000000    -0.321000000
C    -2.378000000     4.349000000    -0.353000000
C    -3.329000000     3.736000000    -1.131000000
H    -3.477000000     4.103000000    -2.143000000
C    -2.198000000     3.960000000     0.981000000
C    -3.021000000     3.061000000     1.601000000
H    -3.033000000     2.855000000     2.668000000
C    -3.893000000     2.372000000     0.766000000
O    -4.635000000     1.301000000     1.271000000
C    -4.272000000    -0.039000000     0.951000000
C    -4.149000000    -0.965000000     2.137000000
C    -3.704000000    -2.265000000     1.894000000
H    -3.407000000    -2.547000000     0.887000000
C    -4.249000000    -0.459000000     3.426000000
H    -4.307000000     0.619000000     3.553000000
O    -5.192000000    -0.596000000     0.045000000
H    -3.251000000    -0.060000000     0.541000000
C    -4.199000000     2.791000000    -0.566000000
C    -5.222000000     1.974000000    -1.354000000
H    -5.697000000     2.553000000    -2.149000000
H    -6.047000000     1.756000000    -0.673000000
C    -4.641000000     0.717000000    -1.933000000
C    -3.865000000     0.779000000    -3.127000000
H    -3.776000000     1.706000000    -3.689000000
C    -4.752000000    -0.534000000    -1.245000000
C    -4.041000000    -1.636000000    -1.735000000
H    -4.089000000    -2.553000000    -1.154000000
C    -3.390000000    -1.555000000    -2.898000000
O    -2.629000000    -2.687000000    -3.324000000
C    -1.151000000    -2.687000000    -3.051000000
C    -0.671000000    -4.081000000    -2.776000000
C    -1.506000000    -4.943000000    -2.070000000
H    -2.471000000    -4.531000000    -1.786000000
C     0.638000000    -4.404000000    -2.956000000
H     1.280000000    -3.714000000    -3.497000000
O    -0.582000000    -2.233000000    -4.285000000
H    -0.880000000    -1.984000000    -2.250000000
C    -3.253000000    -0.368000000    -3.614000000
C    -2.468000000    -0.224000000    -4.910000000
H    -2.818000000     0.657000000    -5.452000000
H    -2.706000000    -1.029000000    -5.609000000
C    -0.980000000     0.034000000    -4.710000000
C    -0.062000000    -0.965000000    -4.394000000
C     1.261000000    -0.607000000    -4.157000000
H     1.938000000    -1.363000000    -3.769000000
C     1.709000000     0.734000000    -4.288000000
O     2.986000000     1.018000000    -3.821000000
C     3.103000000     1.413000000    -2.471000000
H     2.111000000     1.207000000    -2.041000000
C     4.155000000     0.592000000    -1.699000000
C     5.045000000     1.279000000    -0.779000000
H     5.144000000     2.360000000    -0.729000000
C     4.222000000    -0.787000000    -1.776000000
H     3.684000000    -1.378000000    -2.512000000
C     4.935000000    -1.556000000    -0.844000000
O     4.941000000    -2.932000000    -0.740000000
C     5.705000000    -0.901000000     0.139000000
H     6.330000000    -1.468000000     0.824000000
C     5.818000000     0.510000000     0.146000000
O     6.623000000     1.000000000     1.128000000
C     6.440000000     2.159000000     1.816000000
C     5.290000000     2.390000000     2.564000000
H     4.517000000     1.630000000     2.476000000
C     7.599000000     2.934000000     1.981000000
H     8.470000000     2.655000000     1.392000000
C     7.629000000     3.867000000     2.972000000
H     8.587000000     4.379000000     3.027000000
C     6.459000000     4.197000000     3.637000000
H     6.545000000     5.045000000     4.312000000
C     5.260000000     3.520000000     3.447000000
O     4.241000000     3.874000000     4.307000000
C     2.874000000     3.620000000     4.132000000
C     2.276000000     2.735000000     4.991000000
H     2.810000000     2.346000000     5.855000000
C     0.927000000     2.337000000     4.840000000
O     0.338000000     1.335000000     5.644000000
C    -0.980000000     1.348000000     6.074000000
C    -1.742000000     0.296000000     5.772000000
H    -1.316000000    -0.453000000     5.109000000
C    -1.553000000     2.478000000     6.744000000
H    -1.028000000     3.426000000     6.831000000
C    -2.854000000     2.442000000     7.157000000
H    -3.382000000     3.272000000     7.621000000
C    -3.572000000     1.359000000     6.888000000
H    -4.650000000     1.394000000     7.021000000
C    -3.069000000     0.222000000     6.161000000
O    -3.908000000    -0.796000000     5.772000000
C    -3.943000000    -1.287000000     4.491000000
C    -3.521000000    -2.593000000     4.292000000
H    -3.149000000    -3.097000000     5.180000000
C    -3.431000000    -3.112000000     3.004000000
O    -2.910000000    -4.360000000     2.928000000
C    -3.292000000    -5.282000000     1.944000000
C    -2.385000000    -5.606000000     0.960000000
H    -1.393000000    -5.177000000     1.072000000
C    -4.586000000    -5.735000000     1.987000000
H    -5.290000000    -5.383000000     2.737000000
C    -5.039000000    -6.506000000     0.923000000
H    -6.062000000    -6.874000000     0.901000000
C    -4.147000000    -6.832000000    -0.080000000
H    -4.347000000    -7.590000000    -0.833000000
C    -2.803000000    -6.461000000    -0.036000000
O    -1.985000000    -6.988000000    -1.014000000
C    -1.061000000    -6.211000000    -1.621000000
C     0.226000000    -6.661000000    -2.087000000
H     0.444000000    -7.707000000    -1.884000000
C     1.095000000    -5.738000000    -2.695000000
O     2.258000000    -6.163000000    -3.190000000
C     3.420000000    -5.430000000    -3.044000000
C     4.311000000    -5.384000000    -4.075000000
H     3.958000000    -5.985000000    -4.909000000
C     5.439000000    -4.522000000    -4.059000000
H     6.158000000    -4.402000000    -4.865000000
C     5.613000000    -3.668000000    -2.931000000
H     6.386000000    -2.904000000    -2.907000000
C     4.725000000    -3.740000000    -1.863000000
C     3.652000000    -4.687000000    -1.911000000
H     2.922000000    -4.717000000    -1.106000000
C     0.041000000    -1.709000000     2.038000000
H    -0.313000000    -1.985000000     3.028000000
C    -0.494000000    -0.554000000     1.510000000
H    -1.317000000    -0.031000000     1.990000000
C    -0.133000000    -0.170000000     0.222000000
H    -0.634000000     0.605000000    -0.341000000
C     0.814000000    -0.945000000    -0.535000000
H     1.023000000    -0.767000000    -1.586000000
C     1.309000000    -2.102000000     0.002000000
H     2.035000000    -2.741000000    -0.494000000
C     0.989000000    -2.493000000     1.295000000
C     1.626000000    -3.691000000     1.849000000
O     2.422000000    -4.416000000     1.285000000
O     1.311000000    -3.994000000     3.003000000
O     7.113000000    -5.091000000    -0.311000000
H     6.986000000    -5.121000000     0.637000000
H     7.143000000    -4.157000000    -0.518000000
O     1.411000000    -2.285000000     5.109000000
H     2.164000000    -2.628000000     5.591000000
H     1.410000000    -2.775000000     4.287000000
O     3.014000000    -0.404000000     2.222000000
H     2.146000000    -0.681000000     2.516000000
H     2.961000000    -0.428000000     1.266000000
O     2.078000000    -7.097000000     0.951000000
H     1.222000000    -7.187000000     1.368000000
H     2.314000000    -6.179000000     1.083000000
O    -0.121000000    -7.789000000     2.341000000
H    -0.232000000    -7.197000000     3.085000000
H    -0.941000000    -8.283000000     2.304000000
O     3.315000000    -5.391000000     4.186000000
H     2.556000000    -5.112000000     3.673000000
H     3.317000000    -4.810000000     4.947000000
O     1.251000000    -7.745000000     6.137000000
H     1.092000000    -6.849000000     5.843000000
H     0.797000000    -8.292000000     5.496000000
O    -0.454000000    -5.742000000     4.327000000
H     0.111000000    -5.140000000     3.843000000
H    -0.978000000    -5.176000000     4.893000000
O     4.859000000    -5.364000000     1.902000000
H     4.145000000    -4.917000000     1.448000000
H     4.451000000    -5.729000000     2.688000000
O     5.807000000    -7.420000000    -0.045000000
H     5.756000000    -6.465000000    -0.047000000
H     6.032000000    -7.646000000     0.858000000
O     3.583000000    -9.241000000     0.066000000
H     3.108000000    -8.490000000     0.421000000
H     4.471000000    -8.914000000    -0.083000000
O     4.024000000    -8.080000000     3.770000000
H     3.178000000    -8.526000000     3.811000000
H     3.853000000    -7.209000000     4.126000000
O    -0.151000000    -2.315000000     7.493000000
H     0.225000000    -1.552000000     7.931000000
H     0.266000000    -2.327000000     6.632000000
O     3.718000000    -3.770000000     6.473000000
H     3.327000000    -3.727000000     7.346000000
H     4.600000000    -3.415000000     6.588000000
O     5.927000000    -6.075000000     5.864000000
H     6.133000000    -6.079000000     6.798000000
H     4.979000000    -5.948000000     5.828000000
O     6.521000000    -3.300000000     3.305000000
H     5.963000000    -2.525000000     3.243000000
H     5.943000000    -4.029000000     3.077000000
O     4.901000000    -1.011000000     3.948000000
H     4.381000000    -1.316000000     4.692000000
H     4.255000000    -0.669000000     3.330000000
O    -1.133000000    -4.833000000     6.786000000
H    -0.642000000    -5.496000000     7.270000000
H    -0.791000000    -3.998000000     7.107000000
O     1.909000000    -9.425000000     3.885000000
H     1.337000000   -10.071000000     4.301000000
H     1.321000000    -8.901000000     3.341000000
