215
-1444.56405
C     0.588000000     3.189000000     4.223000000
H    -0.499000000     3.198000000     4.197000000
C     1.357000000     3.485000000     3.100000000
C     2.708000000     3.180000000     3.128000000
H     3.221000000     3.311000000     2.179000000
C     0.551000000     3.775000000     1.813000000
O    -0.767000000     4.382000000     2.061000000
H     0.416000000     2.803000000     1.318000000
O     1.346000000     4.582000000     0.926000000
C     1.358000000     4.435000000    -0.436000000
C     2.509000000     4.048000000    -1.052000000
H     3.384000000     3.713000000    -0.500000000
C     2.487000000     3.635000000    -2.392000000
O     3.489000000     2.931000000    -2.900000000
C     1.260000000     3.746000000    -3.161000000
C     0.965000000     3.216000000    -4.539000000
H     0.285000000     3.849000000    -5.113000000
C     0.536000000     1.786000000    -4.601000000
C    -0.846000000     1.492000000    -4.888000000
H    -1.541000000     2.295000000    -5.116000000
H     1.865000000     3.291000000    -5.153000000
C     0.182000000     4.283000000    -2.448000000
H    -0.721000000     4.417000000    -3.038000000
C     0.239000000     4.705000000    -1.154000000
C    -1.060000000     5.318000000    -0.537000000
H    -1.510000000     5.874000000    -1.362000000
H    -0.911000000     6.041000000     0.268000000
C    -1.983000000     4.268000000     0.025000000
C    -3.106000000     3.795000000    -0.617000000
H    -3.157000000     4.068000000    -1.668000000
C    -1.900000000     3.826000000     1.350000000
C    -2.654000000     2.829000000     1.945000000
H    -2.549000000     2.550000000     2.991000000
C    -3.728000000     2.383000000     1.224000000
O    -4.451000000     1.344000000     1.757000000
C    -4.058000000     0.056000000     1.363000000
C    -3.827000000    -0.915000000     2.570000000
C    -3.750000000    -2.326000000     2.324000000
H    -4.002000000    -2.786000000     1.372000000
C    -3.508000000    -0.452000000     3.865000000
H    -3.406000000     0.610000000     4.074000000
O    -5.075000000    -0.426000000     0.405000000
H    -3.132000000     0.170000000     0.780000000
C    -3.982000000     2.831000000    -0.109000000
C    -5.068000000     2.228000000    -0.987000000
H    -5.329000000     2.918000000    -1.792000000
H    -5.919000000     1.975000000    -0.352000000
C    -4.641000000     0.859000000    -1.615000000
C    -4.057000000     0.944000000    -2.854000000
H    -3.996000000     1.893000000    -3.381000000
C    -4.688000000    -0.350000000    -0.915000000
C    -4.095000000    -1.499000000    -1.515000000
H    -4.099000000    -2.456000000    -0.999000000
C    -3.575000000    -1.417000000    -2.795000000
O    -2.933000000    -2.548000000    -3.238000000
C    -1.447000000    -2.594000000    -3.030000000
C    -0.937000000    -3.980000000    -2.712000000
C    -1.593000000    -4.777000000    -1.753000000
H    -2.431000000    -4.396000000    -1.175000000
C     0.304000000    -4.418000000    -3.215000000
H     0.899000000    -3.807000000    -3.889000000
O    -0.863000000    -2.085000000    -4.270000000
H    -1.265000000    -1.956000000    -2.153000000
C    -3.472000000    -0.200000000    -3.406000000
C    -2.778000000    -0.135000000    -4.794000000
H    -3.382000000     0.482000000    -5.463000000
H    -3.085000000    -1.071000000    -5.266000000
C    -1.290000000     0.176000000    -4.719000000
C    -0.358000000    -0.847000000    -4.481000000
C     0.962000000    -0.559000000    -4.356000000
H     1.605000000    -1.418000000    -4.180000000
C     1.431000000     0.749000000    -4.296000000
O     2.750000000     0.993000000    -4.025000000
C     3.170000000     1.519000000    -2.775000000
H     2.344000000     1.463000000    -2.051000000
C     4.239000000     0.623000000    -2.084000000
C     5.063000000     1.187000000    -1.136000000
H     5.144000000     2.268000000    -1.052000000
C     4.288000000    -0.749000000    -2.323000000
H     3.584000000    -1.282000000    -2.957000000
C     5.208000000    -1.535000000    -1.616000000
O     5.248000000    -2.926000000    -1.753000000
C     6.018000000    -0.962000000    -0.702000000
H     6.533000000    -1.658000000    -0.045000000
C     5.957000000     0.411000000    -0.439000000
O     6.682000000     0.882000000     0.648000000
C     6.408000000     1.976000000     1.499000000
C     5.829000000     1.757000000     2.709000000
H     5.392000000     0.778000000     2.887000000
C     6.761000000     3.205000000     1.051000000
H     7.298000000     3.223000000     0.106000000
C     6.403000000     4.397000000     1.777000000
H     6.610000000     5.391000000     1.389000000
C     5.817000000     4.170000000     2.998000000
H     5.447000000     5.007000000     3.584000000
C     5.527000000     2.888000000     3.470000000
O     4.677000000     2.672000000     4.587000000
C     3.304000000     2.815000000     4.387000000
C     2.512000000     2.794000000     5.496000000
H     2.955000000     2.612000000     6.472000000
C     1.143000000     2.880000000     5.391000000
O     0.382000000     2.987000000     6.541000000
C    -0.874000000     2.314000000     6.643000000
C    -0.975000000     0.926000000     6.387000000
H    -0.067000000     0.387000000     6.131000000
C    -2.025000000     2.951000000     7.062000000
H    -2.016000000     4.013000000     7.293000000
C    -3.301000000     2.391000000     7.019000000
H    -4.232000000     2.943000000     7.121000000
C    -3.376000000     1.048000000     6.678000000
H    -4.360000000     0.586000000     6.643000000
C    -2.237000000     0.298000000     6.408000000
O    -2.431000000    -1.019000000     6.061000000
C    -3.002000000    -1.392000000     4.814000000
C    -3.085000000    -2.745000000     4.609000000
H    -2.777000000    -3.452000000     5.375000000
C    -3.429000000    -3.220000000     3.354000000
O    -3.484000000    -4.614000000     3.259000000
C    -3.648000000    -5.312000000     2.109000000
C    -2.547000000    -5.757000000     1.386000000
H    -1.521000000    -5.467000000     1.601000000
C    -4.931000000    -5.791000000     1.805000000
H    -5.806000000    -5.491000000     2.376000000
C    -5.155000000    -6.540000000     0.697000000
H    -6.171000000    -6.799000000     0.409000000
C    -4.105000000    -7.031000000    -0.015000000
H    -4.261000000    -7.729000000    -0.834000000
C    -2.792000000    -6.533000000     0.272000000
O    -1.780000000    -6.887000000    -0.590000000
C    -1.122000000    -6.037000000    -1.457000000
C     0.023000000    -6.487000000    -2.002000000
H     0.384000000    -7.466000000    -1.697000000
C     0.838000000    -5.676000000    -2.776000000
O     1.992000000    -6.120000000    -3.340000000
C     3.061000000    -5.274000000    -3.504000000
C     3.597000000    -5.159000000    -4.771000000
H     3.210000000    -5.785000000    -5.572000000
C     4.769000000    -4.364000000    -4.999000000
H     5.295000000    -4.549000000    -5.932000000
C     5.317000000    -3.650000000    -4.021000000
H     6.209000000    -3.072000000    -4.248000000
C     4.679000000    -3.625000000    -2.746000000
C     3.626000000    -4.514000000    -2.486000000
H     3.231000000    -4.623000000    -1.480000000
C    -0.301000000    -1.581000000     2.072000000
H    -0.798000000    -1.828000000     3.007000000
C    -0.597000000    -0.391000000     1.344000000
H    -1.299000000     0.360000000     1.698000000
C    -0.060000000    -0.222000000     0.057000000
H    -0.435000000     0.603000000    -0.608000000
C     0.894000000    -1.093000000    -0.394000000
H     1.340000000    -0.895000000    -1.366000000
C     1.226000000    -2.223000000     0.307000000
H     1.896000000    -2.924000000    -0.184000000
C     0.613000000    -2.509000000     1.578000000
C     0.970000000    -3.802000000     2.264000000
O     1.880000000    -4.415000000     1.784000000
O     0.496000000    -3.928000000     3.413000000
O     1.321000000    -4.612000000     8.373000000
H     2.028000000    -4.074000000     8.729000000
H     0.978000000    -5.089000000     9.129000000
O    -2.645000000    -6.276000000     5.187000000
H    -2.770000000    -5.796000000     4.368000000
H    -1.787000000    -5.992000000     5.503000000
O     2.316000000    -2.665000000     4.968000000
H     1.627000000    -2.953000000     4.369000000
H     1.846000000    -2.346000000     5.738000000
O     3.838000000    -2.665000000     2.625000000
H     3.403000000    -2.285000000     3.389000000
H     3.224000000    -3.325000000     2.303000000
O     1.847000000    -6.739000000     0.527000000
H     1.278000000    -7.144000000     1.182000000
H     1.970000000    -5.842000000     0.839000000
O     0.811000000    -8.118000000     2.908000000
H     1.377000000    -7.843000000     3.630000000
H    -0.065000000    -8.153000000     3.292000000
O     4.011000000    -6.004000000     2.827000000
H     3.193000000    -5.514000000     2.746000000
H     4.631000000    -5.375000000     3.197000000
O     3.401000000    -8.115000000     4.920000000
H     4.186000000    -8.193000000     4.378000000
H     3.478000000    -7.254000000     5.331000000
O    -0.025000000    -5.765000000     5.319000000
H     0.169000000    -5.120000000     4.638000000
H     0.833000000    -6.079000000     5.603000000
O     4.609000000    -6.616000000     0.052000000
H     3.660000000    -6.685000000     0.157000000
H     4.912000000    -6.223000000     0.870000000
O     2.461000000   -10.016000000     2.185000000
H     1.815000000    -9.316000000     2.281000000
H     3.211000000    -9.722000000     2.702000000
O     1.721000000    -9.388000000    -0.557000000
H     1.794000000    -9.880000000     0.261000000
H     1.852000000    -8.476000000    -0.301000000
O     5.391000000    -8.191000000     3.242000000
H     5.777000000    -8.617000000     2.477000000
H     4.940000000    -7.425000000     2.888000000
O     3.191000000    -5.390000000     6.414000000
H     3.566000000    -4.555000000     6.133000000
H     2.616000000    -5.161000000     7.144000000
O     6.049000000    -4.803000000     5.805000000
H     5.883000000    -5.503000000     6.436000000
H     6.246000000    -4.037000000     6.343000000
O     6.577000000    -2.152000000     3.442000000
H     5.878000000    -1.830000000     4.011000000
H     6.129000000    -2.419000000     2.639000000
O     4.546000000    -0.690000000     5.141000000
H     4.393000000    -0.198000000     5.948000000
H     3.834000000    -1.329000000     5.112000000
O     0.576000000    -2.259000000     7.210000000
H    -0.366000000    -2.107000000     7.126000000
H     0.646000000    -3.166000000     7.510000000
O    -1.651000000    -8.305000000     3.814000000
H    -2.462000000    -8.408000000     3.315000000
H    -1.784000000    -7.507000000     4.325000000
