215
-1442.99146
C    -3.137000000    -2.759000000     2.566000000
H    -3.394000000    -3.329000000     1.676000000
C    -3.466000000    -1.423000000     2.705000000
C    -3.054000000    -0.673000000     3.823000000
H    -3.388000000     0.361000000     3.791000000
C    -3.942000000    -0.632000000     1.425000000
O    -4.496000000    -1.496000000     0.402000000
H    -3.020000000    -0.212000000     0.996000000
O    -4.819000000     0.446000000     1.661000000
C    -4.452000000     1.654000000     0.998000000
C    -3.644000000     2.592000000     1.695000000
H    -3.503000000     2.469000000     2.766000000
C    -2.999000000     3.633000000     0.996000000
O    -2.060000000     4.334000000     1.655000000
C    -3.267000000     3.802000000    -0.339000000
C    -2.568000000     4.793000000    -1.193000000
H    -3.182000000     4.969000000    -2.079000000
C    -1.181000000     4.260000000    -1.609000000
C    -0.948000000     3.703000000    -2.905000000
H    -1.821000000     3.515000000    -3.523000000
H    -2.502000000     5.691000000    -0.575000000
C    -3.995000000     2.862000000    -1.021000000
H    -4.137000000     3.077000000    -2.077000000
C    -4.590000000     1.754000000    -0.405000000
C    -5.318000000     0.723000000    -1.318000000
H    -5.644000000     1.290000000    -2.193000000
H    -6.227000000     0.403000000    -0.804000000
C    -4.418000000    -0.441000000    -1.753000000
C    -3.918000000    -0.418000000    -3.048000000
H    -4.010000000     0.484000000    -3.648000000
C    -4.000000000    -1.440000000    -0.899000000
C    -3.234000000    -2.486000000    -1.382000000
H    -2.934000000    -3.263000000    -0.684000000
C    -2.705000000    -2.433000000    -2.690000000
O    -1.855000000    -3.508000000    -3.009000000
C    -0.458000000    -3.235000000    -2.946000000
C     0.268000000    -4.473000000    -2.457000000
C     1.641000000    -4.649000000    -2.754000000
H     2.208000000    -3.836000000    -3.201000000
C    -0.336000000    -5.397000000    -1.622000000
H    -1.394000000    -5.306000000    -1.389000000
O     0.008000000    -2.906000000    -4.254000000
H    -0.268000000    -2.438000000    -2.212000000
C    -3.028000000    -1.378000000    -3.511000000
C    -2.391000000    -1.409000000    -4.865000000
H    -2.904000000    -0.714000000    -5.533000000
H    -2.484000000    -2.365000000    -5.385000000
C    -0.978000000    -0.803000000    -4.836000000
C    -0.804000000     0.613000000    -5.001000000
H    -1.670000000     1.197000000    -5.302000000
C     0.110000000    -1.587000000    -4.512000000
C     1.312000000    -0.978000000    -4.237000000
H     2.117000000    -1.602000000    -3.857000000
C     1.447000000     0.397000000    -4.405000000
O     2.638000000     0.852000000    -3.891000000
C     2.690000000     1.483000000    -2.570000000
C     3.978000000     1.062000000    -1.871000000
C     4.413000000    -0.254000000    -1.863000000
H     3.871000000    -0.967000000    -2.480000000
C     4.725000000     1.979000000    -1.131000000
H     4.374000000     3.001000000    -1.012000000
O     2.601000000     2.945000000    -2.738000000
H     1.868000000     1.295000000    -1.863000000
C     0.415000000     1.201000000    -4.739000000
C     0.532000000     2.729000000    -4.709000000
H    -0.251000000     3.207000000    -5.300000000
H     1.440000000     3.020000000    -5.242000000
C     0.315000000     3.338000000    -3.304000000
C     1.392000000     3.564000000    -2.469000000
C     1.236000000     4.144000000    -1.237000000
H     2.085000000     4.307000000    -0.578000000
C    -0.038000000     4.461000000    -0.793000000
O    -0.124000000     4.932000000     0.487000000
C    -0.693000000     3.999000000     1.439000000
H    -0.572000000     3.003000000     0.988000000
C     0.042000000     4.041000000     2.783000000
C    -0.592000000     3.865000000     3.991000000
H    -1.671000000     3.736000000     4.029000000
C     1.444000000     3.996000000     2.809000000
H     2.021000000     4.009000000     1.888000000
C     2.167000000     4.144000000     4.017000000
O     3.624000000     4.162000000     4.112000000
C     1.466000000     4.130000000     5.160000000
H     1.996000000     3.937000000     6.090000000
C     0.103000000     3.954000000     5.194000000
O    -0.503000000     3.792000000     6.380000000
C    -1.520000000     2.973000000     6.423000000
C    -1.280000000     1.636000000     6.159000000
H    -0.273000000     1.282000000     5.952000000
C    -2.812000000     3.457000000     6.651000000
H    -3.056000000     4.516000000     6.628000000
C    -3.920000000     2.546000000     6.751000000
H    -4.922000000     2.958000000     6.842000000
C    -3.658000000     1.186000000     6.566000000
H    -4.491000000     0.509000000     6.733000000
C    -2.302000000     0.731000000     6.218000000
O    -2.028000000    -0.535000000     6.018000000
C    -2.397000000    -1.264000000     4.869000000
C    -2.017000000    -2.590000000     4.820000000
H    -1.481000000    -3.107000000     5.613000000
C    -2.508000000    -3.323000000     3.635000000
O    -2.038000000    -4.629000000     3.579000000
C    -2.207000000    -5.554000000     2.577000000
C    -1.157000000    -5.845000000     1.764000000
H    -0.236000000    -5.273000000     1.848000000
C    -3.404000000    -6.234000000     2.458000000
H    -4.279000000    -6.030000000     3.069000000
C    -3.492000000    -7.252000000     1.526000000
H    -4.457000000    -7.748000000     1.466000000
C    -2.443000000    -7.557000000     0.688000000
H    -2.654000000    -8.374000000     0.003000000
C    -1.288000000    -6.829000000     0.765000000
O    -0.172000000    -7.225000000     0.058000000
C     0.388000000    -6.445000000    -1.049000000
C     1.747000000    -6.731000000    -1.438000000
H     2.301000000    -7.576000000    -1.038000000
C     2.323000000    -5.770000000    -2.283000000
O     3.590000000    -5.913000000    -2.791000000
C     4.392000000    -4.836000000    -2.885000000
C     4.618000000    -3.928000000    -1.870000000
H     4.059000000    -4.099000000    -0.954000000
C     4.878000000    -4.582000000    -4.134000000
H     4.538000000    -5.213000000    -4.951000000
C     5.752000000    -3.488000000    -4.351000000
H     6.165000000    -3.237000000    -5.324000000
C     6.075000000    -2.648000000    -3.328000000
H     6.899000000    -1.946000000    -3.428000000
C     5.524000000    -2.891000000    -2.103000000
O     5.913000000    -2.015000000    -1.142000000
C     5.526000000    -0.659000000    -1.197000000
C     6.217000000     0.259000000    -0.412000000
H     7.124000000    -0.114000000     0.058000000
C     5.832000000     1.590000000    -0.371000000
O     6.416000000     2.473000000     0.485000000
C     5.778000000     3.482000000     1.164000000
C     5.532000000     4.674000000     0.458000000
H     5.928000000     4.764000000    -0.550000000
C     4.730000000     5.659000000     0.955000000
H     4.430000000     6.524000000     0.369000000
C     4.145000000     5.509000000     2.222000000
H     3.461000000     6.201000000     2.706000000
C     4.345000000     4.341000000     2.943000000
C     5.081000000     3.324000000     2.358000000
H     5.267000000     2.390000000     2.882000000
C     0.769000000     0.477000000     2.886000000
H     0.539000000     0.716000000     3.921000000
C    -0.131000000     0.513000000     1.855000000
H    -1.126000000     0.949000000     1.889000000
C     0.348000000     0.094000000     0.576000000
H    -0.399000000     0.160000000    -0.247000000
C     1.574000000    -0.470000000     0.423000000
H     1.907000000    -0.813000000    -0.553000000
C     2.450000000    -0.443000000     1.481000000
H     3.411000000    -0.945000000     1.401000000
C     2.066000000    -0.082000000     2.777000000
C     2.941000000    -0.268000000     3.978000000
O     3.852000000    -1.006000000     3.827000000
O     2.688000000     0.250000000     5.056000000
O     4.018000000    -2.030000000     6.439000000
H     3.929000000    -1.213000000     5.948000000
H     3.484000000    -2.660000000     5.955000000
O     8.471000000    -1.473000000     6.046000000
H     8.223000000    -2.029000000     6.785000000
H     7.679000000    -1.419000000     5.511000000
O     1.181000000    -3.705000000     4.901000000
H     1.393000000    -2.856000000     5.289000000
H     0.930000000    -3.501000000     4.000000000
O     1.557000000     1.902000000     9.109000000
H     1.477000000     2.397000000     8.294000000
H     2.237000000     1.252000000     8.928000000
O     7.070000000    -4.899000000     4.619000000
H     6.535000000    -4.291000000     4.108000000
H     7.967000000    -4.586000000     4.501000000
O     6.568000000    -2.877000000     7.442000000
H     5.699000000    -2.914000000     7.042000000
H     6.481000000    -2.234000000     8.146000000
O     0.845000000    -2.988000000     8.563000000
H     1.680000000    -3.225000000     8.967000000
H     1.090000000    -2.508000000     7.772000000
O     1.021000000    -1.329000000     6.330000000
H     1.701000000    -0.768000000     5.956000000
H     0.439000000    -0.726000000     6.791000000
O     5.376000000    -5.609000000     1.839000000
H     5.177000000    -4.693000000     2.034000000
H     6.332000000    -5.642000000     1.796000000
O     6.675000000    -0.783000000     3.965000000
H     6.847000000     0.027000000     4.446000000
H     5.720000000    -0.846000000     3.936000000
O    -0.638000000    -5.321000000     6.958000000
H    -0.015000000    -5.978000000     7.267000000
H    -0.206000000    -4.913000000     6.208000000
O     5.368000000    -3.172000000     2.957000000
H     6.147000000    -2.631000000     2.827000000
H     4.725000000    -2.576000000     3.341000000
O     3.812000000     3.930000000     8.154000000
H     3.932000000     3.195000000     7.552000000
H     4.669000000     4.354000000     8.188000000
O     2.906000000    -0.400000000     8.529000000
H     3.274000000    -0.673000000     7.688000000
H     2.773000000    -1.218000000     9.009000000
O     9.318000000     1.238000000     2.809000000
H     8.830000000     1.290000000     3.630000000
H     8.753000000     1.667000000     2.167000000
O     4.170000000     2.120000000     6.060000000
H     3.739000000     1.326000000     5.743000000
H     3.973000000     2.781000000     5.396000000
O     7.199000000     1.431000000     5.496000000
H     6.366000000     1.409000000     5.968000000
H     7.842000000     1.116000000     6.130000000
O     8.127000000    -2.522000000     2.237000000
H     8.664000000    -3.017000000     2.855000000
H     8.127000000    -1.629000000     2.582000000
O     4.953000000     1.164000000     9.783000000
H     4.391000000     0.646000000     9.206000000
H     4.461000000     1.229000000    10.601000000
