215
-1439.57933
C     0.610000000     2.367000000     4.966000000
H    -0.361000000     2.721000000     5.301000000
C     1.177000000     2.721000000     3.757000000
C     2.475000000     2.298000000     3.453000000
H     2.886000000     2.623000000     2.501000000
C     0.434000000     3.451000000     2.679000000
O    -0.790000000     3.959000000     3.100000000
H     0.067000000     2.601000000     2.085000000
O     1.076000000     4.397000000     1.907000000
C     0.931000000     4.464000000     0.509000000
C     2.029000000     4.072000000    -0.202000000
H     2.885000000     3.754000000     0.388000000
C     1.906000000     3.923000000    -1.551000000
O     2.949000000     3.398000000    -2.284000000
C     0.700000000     4.229000000    -2.211000000
C     0.550000000     4.023000000    -3.704000000
H    -0.235000000     4.709000000    -4.028000000
C     0.130000000     2.612000000    -4.021000000
C    -1.199000000     2.300000000    -4.079000000
H    -1.965000000     3.051000000    -3.901000000
H     1.462000000     4.291000000    -4.242000000
C    -0.385000000     4.759000000    -1.484000000
H    -1.348000000     4.949000000    -1.953000000
C    -0.268000000     4.947000000    -0.124000000
C    -1.512000000     5.437000000     0.714000000
H    -2.103000000     6.223000000     0.239000000
H    -1.049000000     6.023000000     1.511000000
C    -2.322000000     4.281000000     1.224000000
C    -3.465000000     3.821000000     0.504000000
H    -3.762000000     4.329000000    -0.410000000
C    -1.976000000     3.664000000     2.385000000
C    -2.620000000     2.521000000     2.838000000
H    -2.324000000     2.053000000     3.774000000
C    -3.646000000     1.966000000     2.023000000
O    -4.146000000     0.722000000     2.424000000
C    -3.802000000    -0.513000000     1.688000000
C    -3.368000000    -1.740000000     2.561000000
C    -3.217000000    -2.955000000     1.977000000
H    -3.628000000    -3.195000000     0.999000000
C    -2.913000000    -1.492000000     3.831000000
H    -2.830000000    -0.470000000     4.195000000
O    -4.846000000    -0.681000000     0.675000000
H    -2.910000000    -0.233000000     1.109000000
C    -4.031000000     2.619000000     0.847000000
C    -5.141000000     2.039000000    -0.085000000
H    -5.737000000     2.813000000    -0.573000000
H    -5.867000000     1.615000000     0.612000000
C    -4.677000000     0.972000000    -1.052000000
C    -4.246000000     1.333000000    -2.312000000
H    -4.305000000     2.334000000    -2.731000000
C    -4.561000000    -0.337000000    -0.629000000
C    -4.021000000    -1.279000000    -1.470000000
H    -3.881000000    -2.308000000    -1.151000000
C    -3.669000000    -0.945000000    -2.764000000
O    -2.977000000    -1.905000000    -3.467000000
C    -1.525000000    -1.886000000    -3.406000000
C    -0.955000000    -3.294000000    -3.192000000
C    -1.750000000    -4.378000000    -2.946000000
H    -2.822000000    -4.280000000    -2.797000000
C     0.421000000    -3.493000000    -3.472000000
H     0.969000000    -2.615000000    -3.803000000
O    -1.075000000    -1.279000000    -4.626000000
H    -1.186000000    -1.383000000    -2.488000000
C    -3.739000000     0.375000000    -3.183000000
C    -3.107000000     0.805000000    -4.512000000
H    -3.703000000     1.667000000    -4.820000000
H    -3.270000000     0.075000000    -5.307000000
C    -1.700000000     1.089000000    -4.467000000
C    -0.787000000     0.060000000    -4.583000000
C     0.571000000     0.345000000    -4.437000000
H     1.252000000    -0.502000000    -4.403000000
C     1.052000000     1.592000000    -4.190000000
O     2.362000000     1.719000000    -3.974000000
C     2.896000000     1.954000000    -2.622000000
H     2.297000000     1.482000000    -1.830000000
C     4.154000000     1.173000000    -2.474000000
C     4.901000000     1.483000000    -1.330000000
H     4.608000000     2.324000000    -0.707000000
C     4.543000000     0.064000000    -3.250000000
H     3.842000000    -0.233000000    -4.025000000
C     5.671000000    -0.697000000    -2.928000000
O     6.068000000    -1.769000000    -3.673000000
C     6.410000000    -0.368000000    -1.778000000
H     7.224000000    -1.042000000    -1.526000000
C     6.072000000     0.772000000    -1.053000000
O     6.932000000     1.086000000    -0.019000000
C     6.559000000     1.664000000     1.192000000
C     5.726000000     1.084000000     2.086000000
H     5.293000000     0.097000000     1.943000000
C     6.927000000     2.985000000     1.439000000
H     7.553000000     3.557000000     0.759000000
C     6.378000000     3.690000000     2.505000000
H     6.506000000     4.770000000     2.514000000
C     5.682000000     3.046000000     3.494000000
H     5.327000000     3.554000000     4.387000000
C     5.354000000     1.692000000     3.258000000
O     4.417000000     1.060000000     4.097000000
C     3.165000000     1.598000000     4.432000000
C     2.634000000     1.185000000     5.611000000
H     3.273000000     0.606000000     6.273000000
C     1.351000000     1.616000000     5.934000000
O     0.809000000     1.291000000     7.103000000
C    -0.439000000     0.714000000     7.072000000
C    -0.628000000    -0.531000000     6.513000000
H     0.194000000    -1.205000000     6.283000000
C    -1.560000000     1.420000000     7.490000000
H    -1.352000000     2.417000000     7.871000000
C    -2.865000000     0.957000000     7.316000000
H    -3.664000000     1.587000000     7.699000000
C    -3.034000000    -0.311000000     6.836000000
H    -4.076000000    -0.576000000     6.678000000
C    -1.953000000    -1.087000000     6.521000000
O    -2.090000000    -2.337000000     5.953000000
C    -2.390000000    -2.504000000     4.646000000
C    -2.238000000    -3.759000000     4.093000000
H    -1.913000000    -4.666000000     4.595000000
C    -2.743000000    -3.973000000     2.796000000
O    -2.781000000    -5.296000000     2.372000000
C    -3.139000000    -5.664000000     1.041000000
C    -2.227000000    -5.942000000     0.036000000
H    -1.165000000    -5.736000000     0.147000000
C    -4.464000000    -5.974000000     0.939000000
H    -5.084000000    -5.889000000     1.828000000
C    -5.014000000    -6.364000000    -0.315000000
H    -6.036000000    -6.684000000    -0.505000000
C    -4.169000000    -6.499000000    -1.437000000
H    -4.560000000    -6.946000000    -2.348000000
C    -2.752000000    -6.358000000    -1.166000000
O    -1.857000000    -6.600000000    -2.221000000
C    -1.156000000    -5.617000000    -2.759000000
C     0.263000000    -5.815000000    -2.888000000
H     0.695000000    -6.775000000    -2.619000000
C     1.049000000    -4.734000000    -3.274000000
O     2.406000000    -4.851000000    -3.327000000
C     3.221000000    -4.017000000    -4.124000000
C     3.079000000    -3.929000000    -5.546000000
H     2.362000000    -4.550000000    -6.076000000
C     4.043000000    -3.171000000    -6.271000000
H     3.986000000    -3.152000000    -7.357000000
C     4.989000000    -2.413000000    -5.630000000
H     5.595000000    -1.729000000    -6.220000000
C     5.104000000    -2.478000000    -4.236000000
C     4.297000000    -3.314000000    -3.486000000
H     4.382000000    -3.315000000    -2.403000000
C     0.630000000    -1.911000000     2.713000000
H     0.733000000    -1.952000000     3.794000000
C    -0.002000000    -0.767000000     2.137000000
H    -0.409000000     0.023000000     2.764000000
C     0.037000000    -0.652000000     0.695000000
H    -0.470000000     0.196000000     0.211000000
C     0.320000000    -1.843000000    -0.014000000
H     0.036000000    -1.857000000    -1.063000000
C     0.882000000    -2.965000000     0.602000000
H     1.215000000    -3.731000000    -0.094000000
C     1.077000000    -3.014000000     1.945000000
C     1.578000000    -4.220000000     2.672000000
O     1.992000000    -5.108000000     1.995000000
O     1.722000000    -4.246000000     3.870000000
O     3.993000000    -4.532000000     7.540000000
H     3.542000000    -5.367000000     7.662000000
H     4.515000000    -4.423000000     8.335000000
O     0.119000000    -4.223000000     7.689000000
H     0.973000000    -3.863000000     7.927000000
H     0.239000000    -4.559000000     6.801000000
O     0.338000000    -6.082000000     5.213000000
H     0.888000000    -5.591000000     4.602000000
H     0.262000000    -6.952000000     4.821000000
O     3.979000000    -1.995000000     2.385000000
H     3.152000000    -1.782000000     2.818000000
H     4.626000000    -1.996000000     3.089000000
O    -2.075000000    -6.636000000     6.666000000
H    -2.245000000    -6.089000000     7.433000000
H    -1.232000000    -6.327000000     6.333000000
O     6.211000000    -2.183000000     0.798000000
H     6.588000000    -1.638000000     1.488000000
H     5.274000000    -2.202000000     0.991000000
O     2.456000000    -6.465000000    -0.272000000
H     1.669000000    -7.004000000    -0.186000000
H     2.363000000    -5.795000000     0.405000000
O     0.707000000    -8.618000000     0.054000000
H     1.283000000    -9.084000000    -0.552000000
H    -0.144000000    -9.045000000    -0.048000000
O     1.973000000    -1.778000000     7.949000000
H     2.320000000    -1.736000000     7.058000000
H     2.720000000    -1.565000000     8.508000000
O     4.338000000    -7.679000000     5.295000000
H     5.070000000    -7.400000000     5.846000000
H     4.182000000    -6.938000000     4.710000000
O     0.770000000    -7.445000000     2.736000000
H     1.204000000    -6.625000000     2.499000000
H     0.458000000    -7.800000000     1.903000000
O     4.111000000    -7.224000000    -2.508000000
H     3.556000000    -6.618000000    -2.017000000
H     4.433000000    -7.841000000    -1.851000000
O     6.412000000    -4.163000000    -0.719000000
H     6.242000000    -3.359000000    -0.229000000
H     6.125000000    -4.865000000    -0.134000000
O     6.278000000    -2.763000000     4.122000000
H     6.461000000    -3.585000000     3.667000000
H     5.468000000    -2.931000000     4.605000000
O     4.101000000    -5.866000000     3.260000000
H     4.358000000    -6.036000000     2.354000000
H     3.301000000    -5.345000000     3.189000000
O    -1.345000000    -9.939000000     3.831000000
H    -1.131000000    -9.026000000     3.636000000
H    -0.692000000   -10.206000000     4.477000000
O     5.098000000    -6.188000000     0.571000000
H     5.412000000    -7.090000000     0.504000000
H     4.245000000    -6.198000000     0.137000000
O     3.220000000    -9.094000000     2.846000000
H     2.393000000    -8.614000000     2.799000000
H     3.604000000    -8.829000000     3.682000000
O     3.826000000    -3.035000000     5.207000000
H     4.006000000    -3.611000000     5.950000000
H     3.259000000    -3.552000000     4.635000000
