215
-1464.50389
C     0.765000000     2.479000000     4.049000000
H    -0.294000000     2.245000000     4.120000000
C     1.180000000     3.268000000     2.986000000
C     2.569000000     3.491000000     2.834000000
H     2.993000000     4.108000000     2.046000000
C     0.183000000     3.677000000     1.933000000
O    -1.116000000     3.997000000     2.415000000
H     0.135000000     2.733000000     1.369000000
O     0.604000000     4.706000000     1.060000000
C     0.523000000     4.405000000    -0.279000000
C     1.612000000     3.891000000    -0.989000000
H     2.558000000     3.690000000    -0.492000000
C     1.486000000     3.620000000    -2.343000000
O     2.596000000     3.090000000    -3.000000000
C     0.320000000     3.845000000    -3.050000000
C     0.134000000     3.331000000    -4.470000000
H    -0.749000000     3.854000000    -4.844000000
C    -0.143000000     1.893000000    -4.595000000
C    -1.439000000     1.453000000    -4.604000000
H    -2.278000000     2.141000000    -4.532000000
H     0.960000000     3.556000000    -5.148000000
C    -0.765000000     4.364000000    -2.350000000
H    -1.691000000     4.478000000    -2.909000000
C    -0.648000000     4.681000000    -0.964000000
C    -1.886000000     5.190000000    -0.227000000
H    -2.530000000     5.790000000    -0.873000000
H    -1.461000000     5.899000000     0.486000000
C    -2.654000000     4.124000000     0.523000000
C    -3.622000000     3.393000000    -0.237000000
H    -3.718000000     3.738000000    -1.263000000
C    -2.242000000     3.568000000     1.769000000
C    -2.977000000     2.497000000     2.302000000
H    -2.649000000     2.055000000     3.239000000
C    -4.041000000     1.907000000     1.625000000
O    -4.529000000     0.785000000     2.122000000
C    -3.902000000    -0.459000000     1.767000000
C    -3.667000000    -1.332000000     2.959000000
C    -3.230000000    -2.653000000     2.746000000
H    -3.132000000    -2.964000000     1.708000000
C    -3.515000000    -0.798000000     4.233000000
H    -3.753000000     0.222000000     4.523000000
O    -4.648000000    -1.146000000     0.731000000
H    -2.879000000    -0.200000000     1.455000000
C    -4.326000000     2.294000000     0.273000000
C    -5.350000000     1.539000000    -0.490000000
H    -5.756000000     2.229000000    -1.232000000
H    -6.134000000     1.261000000     0.217000000
C    -4.701000000     0.326000000    -1.230000000
C    -4.330000000     0.465000000    -2.589000000
H    -4.528000000     1.410000000    -3.089000000
C    -4.334000000    -0.839000000    -0.608000000
C    -3.803000000    -1.910000000    -1.348000000
H    -3.732000000    -2.893000000    -0.891000000
C    -3.430000000    -1.741000000    -2.674000000
O    -2.792000000    -2.789000000    -3.263000000
C    -1.431000000    -2.779000000    -3.200000000
C    -0.794000000    -4.062000000    -2.799000000
C    -1.612000000    -5.035000000    -2.138000000
H    -2.691000000    -4.931000000    -2.057000000
C     0.556000000    -4.393000000    -3.036000000
H     1.218000000    -3.723000000    -3.578000000
O    -0.904000000    -2.301000000    -4.504000000
H    -1.128000000    -2.021000000    -2.463000000
C    -3.650000000    -0.543000000    -3.327000000
C    -3.159000000    -0.343000000    -4.792000000
H    -3.789000000     0.392000000    -5.298000000
H    -3.298000000    -1.298000000    -5.303000000
C    -1.708000000     0.085000000    -4.787000000
C    -0.682000000    -0.850000000    -4.670000000
C     0.659000000    -0.426000000    -4.566000000
H     1.379000000    -1.221000000    -4.388000000
C     0.980000000     0.937000000    -4.653000000
O     2.213000000     1.260000000    -4.304000000
C     2.596000000     1.668000000    -2.995000000
H     1.841000000     1.247000000    -2.314000000
C     3.928000000     1.191000000    -2.640000000
C     4.787000000     1.948000000    -1.884000000
H     4.555000000     2.979000000    -1.630000000
C     4.277000000    -0.168000000    -2.877000000
H     3.592000000    -0.787000000    -3.451000000
C     5.393000000    -0.736000000    -2.295000000
O     5.699000000    -2.130000000    -2.337000000
C     6.248000000     0.018000000    -1.567000000
H     7.014000000    -0.437000000    -0.945000000
C     6.028000000     1.402000000    -1.441000000
O     6.951000000     2.096000000    -0.654000000
C     6.596000000     3.058000000     0.265000000
C     5.818000000     2.703000000     1.369000000
H     5.363000000     1.725000000     1.511000000
C     7.017000000     4.396000000     0.192000000
H     7.780000000     4.626000000    -0.547000000
C     6.617000000     5.326000000     1.204000000
H     6.984000000     6.343000000     1.097000000
C     5.841000000     4.936000000     2.269000000
H     5.583000000     5.657000000     3.040000000
C     5.450000000     3.623000000     2.341000000
O     4.788000000     3.247000000     3.502000000
C     3.475000000     2.980000000     3.667000000
C     2.981000000     2.342000000     4.795000000
H     3.711000000     2.035000000     5.540000000
C     1.656000000     2.112000000     5.025000000
O     1.228000000     1.377000000     6.125000000
C    -0.070000000     1.331000000     6.527000000
C    -0.793000000     0.211000000     6.305000000
H    -0.275000000    -0.570000000     5.753000000
C    -0.629000000     2.395000000     7.226000000
H    -0.036000000     3.285000000     7.423000000
C    -1.907000000     2.311000000     7.674000000
H    -2.363000000     3.153000000     8.189000000
C    -2.681000000     1.177000000     7.408000000
H    -3.725000000     1.113000000     7.702000000
C    -2.138000000     0.154000000     6.624000000
O    -2.781000000    -1.054000000     6.515000000
C    -3.065000000    -1.617000000     5.231000000
C    -2.710000000    -2.968000000     5.057000000
H    -2.333000000    -3.496000000     5.930000000
C    -2.660000000    -3.469000000     3.773000000
O    -2.144000000    -4.723000000     3.492000000
C    -2.690000000    -5.524000000     2.506000000
C    -2.021000000    -5.802000000     1.341000000
H    -1.062000000    -5.332000000     1.137000000
C    -4.003000000    -6.058000000     2.638000000
H    -4.574000000    -5.880000000     3.546000000
C    -4.573000000    -6.871000000     1.631000000
H    -5.486000000    -7.414000000     1.861000000
C    -3.843000000    -7.112000000     0.506000000
H    -4.162000000    -7.758000000    -0.308000000
C    -2.517000000    -6.651000000     0.348000000
O    -1.843000000    -6.977000000    -0.809000000
C    -1.021000000    -6.192000000    -1.631000000
C     0.320000000    -6.501000000    -1.809000000
H     0.741000000    -7.374000000    -1.319000000
C     1.157000000    -5.575000000    -2.498000000
O     2.506000000    -5.767000000    -2.498000000
C     3.369000000    -4.893000000    -3.199000000
C     3.508000000    -4.950000000    -4.556000000
H     2.992000000    -5.708000000    -5.139000000
C     4.344000000    -3.998000000    -5.202000000
H     4.384000000    -3.919000000    -6.285000000
C     5.024000000    -3.067000000    -4.458000000
H     5.630000000    -2.399000000    -5.065000000
C     4.912000000    -3.034000000    -3.073000000
C     4.045000000    -3.948000000    -2.496000000
H     3.916000000    -4.060000000    -1.422000000
C     0.230000000    -1.458000000     2.685000000
H     0.199000000    -1.401000000     3.770000000
C    -0.207000000    -0.422000000     1.860000000
H    -0.889000000     0.276000000     2.340000000
C    -0.154000000    -0.585000000     0.485000000
H    -0.634000000     0.195000000    -0.071000000
C     0.382000000    -1.729000000    -0.043000000
H     0.397000000    -1.859000000    -1.122000000
C     0.917000000    -2.729000000     0.780000000
H     1.392000000    -3.594000000     0.324000000
C     0.940000000    -2.525000000     2.169000000
C     1.605000000    -3.517000000     3.001000000
O     1.835000000    -4.679000000     2.629000000
O     1.998000000    -3.203000000     4.143000000
O     4.060000000    -4.549000000     7.759000000
H     4.545000000    -3.944000000     7.198000000
H     4.338000000    -5.419000000     7.471000000
O     1.253000000    -5.295000000     5.910000000
H     1.215000000    -4.551000000     5.309000000
H     2.186000000    -5.499000000     5.981000000
O     4.110000000    -2.063000000     0.498000000
H     3.263000000    -1.921000000     0.920000000
H     4.282000000    -1.249000000     0.025000000
O    -0.343000000    -6.248000000     7.893000000
H     0.155000000    -6.125000000     8.701000000
H     0.179000000    -5.812000000     7.220000000
O     5.601000000    -2.599000000     2.734000000
H     5.287000000    -1.717000000     2.931000000
H     5.269000000    -2.780000000     1.855000000
O     3.356000000    -6.202000000     1.020000000
H     2.791000000    -6.877000000     0.644000000
H     2.757000000    -5.624000000     1.492000000
O     2.911000000    -0.218000000     8.474000000
H     2.732000000    -0.590000000     7.610000000
H     3.226000000    -0.959000000     8.992000000
O     3.478000000    -6.977000000     4.866000000
H     4.286000000    -7.095000000     5.365000000
H     3.557000000    -6.102000000     4.485000000
O     0.866000000    -7.156000000     3.377000000
H     1.376000000    -6.555000000     2.835000000
H     0.697000000    -6.668000000     4.183000000
O     6.946000000    -3.809000000    -0.071000000
H     6.318000000    -3.642000000    -0.774000000
H     6.454000000    -4.314000000     0.576000000
O     5.080000000    -0.573000000     5.730000000
H     4.233000000    -1.018000000     5.750000000
H     5.578000000    -0.973000000     6.443000000
O     4.330000000    -4.519000000     4.109000000
H     4.828000000    -3.790000000     3.738000000
H     3.416000000    -4.303000000     3.923000000
O    -0.358000000    -8.780000000     5.210000000
H     0.120000000    -8.220000000     4.597000000
H     0.219000000    -9.531000000     5.347000000
O     0.046000000    -9.090000000     1.267000000
H     0.228000000    -8.525000000     2.019000000
H    -0.894000000    -9.262000000     1.319000000
O     5.665000000    -5.490000000     1.991000000
H     4.952000000    -5.919000000     1.518000000
H     5.284000000    -5.259000000     2.839000000
O     3.168000000    -9.256000000     3.040000000
H     3.019000000    -9.104000000     2.107000000
H     3.220000000    -8.379000000     3.420000000
O     7.671000000    -3.848000000     4.202000000
H     7.914000000    -4.629000000     3.706000000
H     6.870000000    -3.536000000     3.781000000
O     4.725000000    -0.110000000     3.176000000
H     5.305000000     0.633000000     3.008000000
H     4.789000000    -0.257000000     4.119000000
O     2.535000000    -1.214000000     5.728000000
H     2.239000000    -2.000000000     5.269000000
H     2.042000000    -0.500000000     5.323000000
