215
-1466.04719
C     3.214000000     3.419000000     2.807000000
H     2.321000000     3.682000000     3.368000000
C     3.028000000     3.480000000     1.409000000
C     4.210000000     3.268000000     0.635000000
H     4.067000000     3.301000000    -0.442000000
C     1.695000000     3.884000000     0.790000000
O     0.847000000     4.607000000     1.762000000
H     1.154000000     2.945000000     0.604000000
O     1.806000000     4.755000000    -0.325000000
C     0.903000000     4.449000000    -1.309000000
C     1.442000000     3.841000000    -2.476000000
H     2.498000000     3.582000000    -2.471000000
C     0.672000000     3.257000000    -3.478000000
O     1.181000000     2.396000000    -4.374000000
C    -0.716000000     3.454000000    -3.321000000
C    -1.596000000     3.085000000    -4.518000000
H    -2.358000000     3.856000000    -4.653000000
C    -2.171000000     1.705000000    -4.334000000
C    -3.346000000     1.555000000    -3.651000000
H    -3.842000000     2.448000000    -3.278000000
H    -0.999000000     3.070000000    -5.432000000
C    -1.262000000     4.170000000    -2.296000000
H    -2.314000000     4.431000000    -2.215000000
C    -0.457000000     4.697000000    -1.303000000
C    -0.996000000     5.484000000    -0.192000000
H    -1.878000000     6.081000000    -0.434000000
H    -0.220000000     6.168000000     0.156000000
C    -1.451000000     4.649000000     1.035000000
C    -2.744000000     4.163000000     1.129000000
H    -3.433000000     4.433000000     0.333000000
C    -0.428000000     4.237000000     1.964000000
C    -0.802000000     3.358000000     3.000000000
H    -0.100000000     3.135000000     3.799000000
C    -2.017000000     2.778000000     3.030000000
O    -2.198000000     1.770000000     3.914000000
C    -2.254000000     0.461000000     3.281000000
C    -1.490000000    -0.588000000     4.061000000
C    -1.966000000    -1.862000000     4.366000000
H    -2.945000000    -2.197000000     4.034000000
C    -0.139000000    -0.292000000     4.403000000
H     0.250000000     0.700000000     4.187000000
O    -3.618000000     0.072000000     3.191000000
H    -1.886000000     0.558000000     2.249000000
C    -2.999000000     3.186000000     2.108000000
C    -4.382000000     2.650000000     2.162000000
H    -4.941000000     3.462000000     1.691000000
H    -4.810000000     2.530000000     3.160000000
C    -4.563000000     1.390000000     1.350000000
C    -4.823000000     1.413000000    -0.057000000
H    -5.222000000     2.336000000    -0.468000000
C    -4.126000000     0.181000000     1.881000000
C    -4.183000000    -1.002000000     1.172000000
H    -3.659000000    -1.855000000     1.595000000
C    -4.538000000    -0.981000000    -0.170000000
O    -4.424000000    -2.083000000    -0.903000000
C    -3.137000000    -2.315000000    -1.637000000
C    -2.663000000    -3.713000000    -1.240000000
C    -3.077000000    -4.483000000    -0.087000000
H    -3.953000000    -4.199000000     0.492000000
C    -1.501000000    -4.169000000    -1.841000000
H    -1.012000000    -3.543000000    -2.583000000
O    -3.377000000    -2.106000000    -3.030000000
H    -2.424000000    -1.555000000    -1.284000000
C    -4.785000000     0.243000000    -0.805000000
C    -5.073000000     0.260000000    -2.319000000
H    -5.785000000     1.055000000    -2.548000000
H    -5.620000000    -0.641000000    -2.604000000
C    -3.794000000     0.306000000    -3.165000000
C    -3.058000000    -0.858000000    -3.540000000
C    -1.925000000    -0.740000000    -4.396000000
H    -1.404000000    -1.589000000    -4.831000000
C    -1.437000000     0.554000000    -4.703000000
O    -0.105000000     0.597000000    -5.179000000
C     0.876000000     0.996000000    -4.170000000
H     0.489000000     0.880000000    -3.146000000
C     2.091000000     0.090000000    -4.257000000
C     3.355000000     0.551000000    -3.923000000
H     3.527000000     1.604000000    -3.717000000
C     1.925000000    -1.326000000    -4.492000000
H     0.938000000    -1.664000000    -4.795000000
C     3.097000000    -2.109000000    -4.633000000
O     3.095000000    -3.392000000    -5.137000000
C     4.311000000    -1.629000000    -4.212000000
H     5.246000000    -2.184000000    -4.226000000
C     4.476000000    -0.295000000    -3.900000000
O     5.726000000     0.058000000    -3.502000000
C     5.980000000     1.249000000    -2.868000000
C     5.980000000     1.374000000    -1.491000000
H     5.668000000     0.503000000    -0.920000000
C     6.520000000     2.226000000    -3.650000000
H     6.589000000     2.109000000    -4.729000000
C     7.020000000     3.440000000    -3.062000000
H     7.484000000     4.205000000    -3.679000000
C     6.992000000     3.556000000    -1.687000000
H     7.296000000     4.459000000    -1.164000000
C     6.487000000     2.511000000    -0.916000000
O     6.514000000     2.649000000     0.454000000
C     5.422000000     2.830000000     1.241000000
C     5.552000000     2.748000000     2.647000000
H     6.338000000     2.404000000     3.314000000
C     4.423000000     3.102000000     3.406000000
O     4.517000000     3.054000000     4.770000000
C     3.526000000     2.318000000     5.440000000
C     3.212000000     0.981000000     5.084000000
H     3.766000000     0.545000000     4.256000000
C     2.868000000     2.909000000     6.485000000
H     3.040000000     3.942000000     6.776000000
C     1.982000000     2.205000000     7.233000000
H     1.550000000     2.707000000     8.095000000
C     1.607000000     0.909000000     6.876000000
H     0.838000000     0.302000000     7.347000000
C     2.284000000     0.314000000     5.798000000
O     1.930000000    -0.932000000     5.367000000
C     0.651000000    -1.271000000     5.004000000
C     0.132000000    -2.538000000     5.300000000
H     0.818000000    -3.268000000     5.721000000
C    -1.199000000    -2.845000000     5.027000000
O    -1.833000000    -4.024000000     5.314000000
C    -2.609000000    -4.896000000     4.667000000
C    -2.458000000    -5.071000000     3.281000000
H    -1.682000000    -4.436000000     2.863000000
C    -3.472000000    -5.749000000     5.399000000
H    -3.558000000    -5.621000000     6.475000000
C    -4.158000000    -6.731000000     4.705000000
H    -4.835000000    -7.310000000     5.328000000
C    -3.968000000    -6.923000000     3.375000000
H    -4.408000000    -7.790000000     2.889000000
C    -3.093000000    -6.100000000     2.637000000
O    -2.917000000    -6.424000000     1.353000000
C    -2.479000000    -5.620000000     0.322000000
C    -1.321000000    -6.034000000    -0.353000000
H    -0.815000000    -6.912000000     0.039000000
C    -0.865000000    -5.349000000    -1.470000000
O     0.266000000    -5.813000000    -2.167000000
C     0.569000000    -5.429000000    -3.496000000
C    -0.373000000    -5.747000000    -4.521000000
H    -1.186000000    -6.419000000    -4.257000000
C    -0.099000000    -5.221000000    -5.778000000
H    -0.708000000    -5.499000000    -6.634000000
C     1.085000000    -4.503000000    -6.020000000
H     1.177000000    -4.048000000    -7.003000000
C     1.981000000    -4.204000000    -5.001000000
C     1.689000000    -4.700000000    -3.720000000
H     2.316000000    -4.509000000    -2.854000000
C     0.672000000    -2.149000000     0.676000000
H     0.292000000    -3.054000000     1.142000000
C    -0.170000000    -1.046000000     0.468000000
H    -1.179000000    -1.101000000     0.868000000
C     0.202000000     0.035000000    -0.320000000
H    -0.538000000     0.894000000    -0.424000000
C     1.533000000     0.078000000    -0.763000000
H     1.948000000     0.918000000    -1.314000000
C     2.422000000    -0.963000000    -0.459000000
H     3.462000000    -0.884000000    -0.767000000
C     1.987000000    -2.060000000     0.236000000
C     2.846000000    -3.272000000     0.470000000
O     3.921000000    -3.303000000    -0.081000000
O     2.574000000    -3.993000000     1.413000000
O     1.431000000    -8.244000000    -1.919000000
H     0.837000000    -7.761000000    -2.492000000
H     2.225000000    -7.710000000    -1.891000000
O     7.797000000    -4.034000000     0.834000000
H     6.893000000    -4.082000000     1.144000000
H     7.962000000    -4.892000000     0.443000000
O     5.710000000    -4.817000000     2.406000000
H     4.870000000    -4.477000000     2.095000000
H     5.777000000    -5.686000000     2.010000000
O     3.722000000    -5.159000000     5.391000000
H     4.219000000    -4.341000000     5.412000000
H     2.917000000    -4.939000000     4.923000000
O     1.511000000    -4.855000000     3.622000000
H     0.712000000    -5.241000000     3.263000000
H     1.976000000    -4.515000000     2.857000000
O     4.082000000    -6.964000000    -2.126000000
H     4.912000000    -7.426000000    -2.244000000
H     4.302000000    -6.041000000    -2.254000000
O     4.395000000    -8.962000000     1.248000000
H     4.649000000    -8.442000000     0.485000000
H     4.159000000    -9.816000000     0.887000000
O     5.030000000    -0.209000000     1.934000000
H     5.306000000    -0.524000000     1.073000000
H     4.551000000    -0.944000000     2.316000000
O     6.085000000    -1.861000000    -0.269000000
H     5.233000000    -2.297000000    -0.228000000
H     6.663000000    -2.504000000    -0.679000000
O     7.421000000    -0.643000000     3.175000000
H     6.475000000    -0.505000000     3.121000000
H     7.794000000     0.238000000     3.150000000
O     2.419000000    -8.021000000     3.062000000
H     2.742000000    -7.860000000     2.175000000
H     3.134000000    -8.487000000     3.495000000
O     6.768000000    -3.034000000     4.450000000
H     6.679000000    -3.374000000     3.559000000
H     6.806000000    -2.084000000     4.341000000
O     1.107000000    -6.589000000     5.712000000
H     1.475000000    -6.136000000     4.953000000
H     0.929000000    -5.893000000     6.344000000
O     3.748000000    -2.258000000     3.254000000
H     3.469000000    -2.117000000     4.158000000
H     2.976000000    -2.618000000     2.818000000
O     6.128000000    -6.709000000    -0.082000000
H     6.444000000    -7.148000000    -0.872000000
H     5.498000000    -6.064000000    -0.404000000
O     2.007000000    -6.315000000     0.581000000
H     2.234000000    -5.474000000     0.976000000
H     2.574000000    -6.380000000    -0.188000000
O     0.077000000    -6.873000000     2.672000000
H     0.255000000    -6.530000000     1.795000000
H     0.857000000    -7.383000000     2.892000000
O     5.063000000    -4.519000000    -2.379000000
H     6.009000000    -4.413000000    -2.275000000
H     4.685000000    -4.012000000    -1.661000000
O     8.722000000    -0.590000000    -0.953000000
H     7.862000000    -0.947000000    -0.730000000
H     9.210000000    -0.609000000    -0.130000000
