215
-1447.65429
C     3.453000000     3.372000000     2.362000000
H     2.668000000     3.388000000     3.114000000
C     3.234000000     3.713000000     1.086000000
C     4.298000000     3.649000000     0.220000000
H     4.101000000     3.843000000    -0.831000000
C     1.874000000     4.013000000     0.583000000
O     1.164000000     4.735000000     1.666000000
H     1.235000000     3.178000000     0.257000000
O     1.915000000     4.782000000    -0.680000000
C     1.011000000     4.441000000    -1.658000000
C     1.456000000     3.647000000    -2.652000000
H     2.507000000     3.412000000    -2.802000000
C     0.591000000     3.039000000    -3.515000000
O     1.125000000     2.029000000    -4.353000000
C    -0.796000000     3.264000000    -3.433000000
C    -1.810000000     2.621000000    -4.379000000
H    -2.682000000     3.271000000    -4.485000000
C    -2.272000000     1.275000000    -3.917000000
C    -3.370000000     1.161000000    -3.062000000
H    -3.943000000     2.033000000    -2.756000000
H    -1.451000000     2.592000000    -5.409000000
C    -1.272000000     4.107000000    -2.425000000
H    -2.332000000     4.331000000    -2.331000000
C    -0.373000000     4.714000000    -1.538000000
C    -0.783000000     5.644000000    -0.395000000
H    -1.635000000     6.265000000    -0.680000000
H     0.020000000     6.331000000    -0.119000000
C    -1.222000000     4.749000000     0.764000000
C    -2.518000000     4.220000000     0.907000000
H    -3.271000000     4.465000000     0.163000000
C    -0.221000000     4.381000000     1.659000000
C    -0.610000000     3.617000000     2.733000000
H     0.079000000     3.365000000     3.536000000
C    -1.942000000     3.120000000     2.918000000
O    -2.088000000     2.199000000     3.941000000
C    -2.292000000     0.799000000     3.541000000
C    -1.494000000    -0.210000000     4.427000000
C    -2.003000000    -1.463000000     4.768000000
H    -2.999000000    -1.703000000     4.402000000
C    -0.198000000     0.088000000     4.861000000
H     0.207000000     1.041000000     4.528000000
O    -3.650000000     0.431000000     3.497000000
H    -1.884000000     0.729000000     2.522000000
C    -2.904000000     3.352000000     1.976000000
C    -4.359000000     2.853000000     2.016000000
H    -4.997000000     3.475000000     1.385000000
H    -4.690000000     3.045000000     3.038000000
C    -4.514000000     1.449000000     1.467000000
C    -4.807000000     1.292000000     0.136000000
H    -5.187000000     2.063000000    -0.530000000
C    -4.147000000     0.361000000     2.226000000
C    -4.162000000    -0.927000000     1.691000000
H    -3.771000000    -1.793000000     2.219000000
C    -4.523000000    -1.063000000     0.420000000
O    -4.245000000    -2.294000000    -0.201000000
C    -3.087000000    -2.533000000    -1.012000000
C    -2.464000000    -3.894000000    -0.714000000
C    -2.634000000    -4.506000000     0.497000000
H    -3.333000000    -4.110000000     1.230000000
C    -1.453000000    -4.385000000    -1.579000000
H    -1.207000000    -3.717000000    -2.401000000
O    -3.452000000    -2.383000000    -2.428000000
H    -2.309000000    -1.793000000    -0.770000000
C    -4.890000000     0.022000000    -0.407000000
C    -5.152000000    -0.212000000    -1.870000000
H    -5.951000000     0.454000000    -2.203000000
H    -5.649000000    -1.177000000    -1.989000000
C    -3.821000000    -0.075000000    -2.624000000
C    -3.117000000    -1.190000000    -3.073000000
C    -1.973000000    -1.121000000    -3.854000000
H    -1.416000000    -2.014000000    -4.123000000
C    -1.600000000     0.139000000    -4.256000000
O    -0.408000000     0.290000000    -4.911000000
C     0.713000000     0.621000000    -4.126000000
H     0.473000000     0.517000000    -3.058000000
C     1.882000000    -0.355000000    -4.396000000
C     3.123000000     0.055000000    -3.961000000
H     3.329000000     1.091000000    -3.704000000
C     1.690000000    -1.720000000    -4.762000000
H     0.722000000    -2.121000000    -5.050000000
C     2.835000000    -2.495000000    -4.887000000
O     2.747000000    -3.788000000    -5.342000000
C     4.090000000    -2.019000000    -4.469000000
H     4.945000000    -2.682000000    -4.578000000
C     4.226000000    -0.779000000    -4.027000000
O     5.487000000    -0.425000000    -3.621000000
C     5.825000000     0.892000000    -3.320000000
C     5.920000000     1.379000000    -2.009000000
H     5.938000000     0.743000000    -1.128000000
C     6.066000000     1.775000000    -4.371000000
H     5.837000000     1.462000000    -5.386000000
C     6.279000000     3.174000000    -4.121000000
H     6.263000000     3.841000000    -4.980000000
C     6.477000000     3.549000000    -2.780000000
H     6.638000000     4.595000000    -2.534000000
C     6.276000000     2.676000000    -1.710000000
O     6.499000000     3.113000000    -0.434000000
C     5.547000000     3.304000000     0.597000000
C     5.764000000     2.855000000     1.921000000
H     6.736000000     2.460000000     2.205000000
C     4.696000000     2.848000000     2.794000000
O     4.981000000     2.611000000     4.114000000
C     3.905000000     2.320000000     4.953000000
C     3.275000000     1.056000000     5.098000000
H     3.644000000     0.215000000     4.517000000
C     3.476000000     3.333000000     5.760000000
H     4.005000000     4.277000000     5.666000000
C     2.450000000     3.169000000     6.733000000
H     2.090000000     3.995000000     7.341000000
C     1.811000000     1.948000000     6.897000000
H     1.081000000     1.793000000     7.687000000
C     2.242000000     0.905000000     6.047000000
O     1.724000000    -0.365000000     6.135000000
C     0.489000000    -0.717000000     5.777000000
C    -0.033000000    -1.930000000     6.073000000
H     0.481000000    -2.669000000     6.682000000
C    -1.247000000    -2.365000000     5.537000000
O    -1.512000000    -3.680000000     5.767000000
C    -2.261000000    -4.491000000     5.010000000
C    -1.823000000    -5.114000000     3.892000000
H    -0.820000000    -4.924000000     3.518000000
C    -3.578000000    -4.586000000     5.441000000
H    -3.852000000    -4.037000000     6.338000000
C    -4.461000000    -5.500000000     4.786000000
H    -5.462000000    -5.678000000     5.170000000
C    -4.010000000    -6.117000000     3.635000000
H    -4.636000000    -6.802000000     3.070000000
C    -2.734000000    -5.915000000     3.122000000
O    -2.268000000    -6.453000000     1.905000000
C    -2.079000000    -5.760000000     0.749000000
C    -1.277000000    -6.367000000    -0.263000000
H    -0.988000000    -7.414000000    -0.206000000
C    -0.860000000    -5.623000000    -1.356000000
O     0.124000000    -6.115000000    -2.094000000
C     0.350000000    -5.739000000    -3.386000000
C    -0.351000000    -6.349000000    -4.376000000
H    -1.098000000    -7.096000000    -4.123000000
C    -0.007000000    -6.121000000    -5.667000000
H    -0.620000000    -6.530000000    -6.467000000
C     1.008000000    -5.180000000    -6.032000000
H     1.216000000    -4.975000000    -7.079000000
C     1.746000000    -4.629000000    -5.014000000
C     1.403000000    -4.859000000    -3.680000000
H     1.909000000    -4.304000000    -2.895000000
C     0.494000000    -3.058000000     0.560000000
H     0.183000000    -3.810000000     1.281000000
C    -0.247000000    -1.896000000     0.493000000
H    -1.138000000    -1.819000000     1.110000000
C     0.193000000    -0.874000000    -0.295000000
H    -0.387000000     0.063000000    -0.541000000
C     1.356000000    -1.066000000    -1.040000000
H     1.777000000    -0.243000000    -1.612000000
C     2.109000000    -2.158000000    -0.880000000
H     2.963000000    -2.086000000    -1.548000000
C     1.678000000    -3.222000000    -0.092000000
C     2.428000000    -4.484000000     0.003000000
O     3.434000000    -4.692000000    -0.638000000
O     2.187000000    -5.330000000     0.860000000
O     4.556000000    -2.958000000     5.586000000
H     5.189000000    -2.950000000     4.868000000
H     4.869000000    -2.283000000     6.189000000
O     2.323000000   -10.666000000     0.314000000
H     3.225000000   -10.924000000     0.123000000
H     2.340000000    -9.709000000     0.304000000
O     7.660000000    -3.534000000     1.034000000
H     6.796000000    -3.287000000     0.703000000
H     8.274000000    -3.162000000     0.402000000
O     4.432000000    -5.584000000     2.418000000
H     3.672000000    -5.623000000     1.837000000
H     4.066000000    -5.672000000     3.298000000
O     3.563000000    -5.626000000     5.223000000
H     3.730000000    -4.775000000     5.629000000
H     2.763000000    -5.496000000     4.714000000
O     3.895000000    -8.611000000    -5.206000000
H     4.798000000    -8.874000000    -5.026000000
H     3.545000000    -8.358000000    -4.351000000
O     1.580000000    -5.659000000     3.407000000
H     1.051000000    -6.455000000     3.451000000
H     1.891000000    -5.627000000     2.503000000
O     3.582000000    -8.485000000    -2.359000000
H     4.158000000    -8.651000000    -1.613000000
H     3.545000000    -7.531000000    -2.427000000
O     7.949000000    -7.730000000    -1.440000000
H     7.340000000    -7.070000000    -1.110000000
H     7.720000000    -7.827000000    -2.364000000
O     5.524000000    -1.319000000     1.965000000
H     5.470000000    -1.813000000     1.148000000
H     4.614000000    -1.211000000     2.241000000
O     5.395000000    -3.070000000    -0.428000000
H     4.785000000    -3.801000000    -0.329000000
H     5.183000000    -2.696000000    -1.283000000
O     6.476000000    -3.670000000    -3.141000000
H     6.837000000    -3.526000000    -2.266000000
H     6.994000000    -3.100000000    -3.710000000
O     6.384000000    -4.143000000     3.399000000
H     5.627000000    -4.604000000     3.037000000
H     6.929000000    -3.945000000     2.638000000
O     2.945000000    -1.340000000     2.392000000
H     2.518000000    -1.628000000     3.198000000
H     2.300000000    -1.512000000     1.705000000
O     5.802000000    -6.457000000    -0.381000000
H     6.231000000    -5.812000000     0.182000000
H     4.869000000    -6.257000000    -0.307000000
O     6.611000000    -8.133000000     3.378000000
H     7.193000000    -8.389000000     2.662000000
H     6.060000000    -7.445000000     3.004000000
O     2.471000000    -7.884000000     0.479000000
H     2.260000000    -6.963000000     0.638000000
H     2.481000000    -7.966000000    -0.474000000
O     0.101000000    -9.075000000     1.907000000
H     0.699000000    -8.577000000     1.351000000
H     0.663000000    -9.701000000     2.363000000
O     4.173000000    -5.754000000    -3.072000000
H     5.070000000    -5.501000000    -3.293000000
H     3.894000000    -5.104000000    -2.427000000
