215
-1460.57883
C     4.159000000     1.048000000     1.900000000
H     3.459000000     1.379000000     2.663000000
C     4.146000000     1.724000000     0.697000000
C     5.142000000     1.352000000    -0.189000000
H     5.301000000     2.019000000    -1.033000000
C     3.102000000     2.806000000     0.419000000
O     2.891000000     3.693000000     1.510000000
H     2.243000000     2.147000000     0.224000000
O     3.451000000     3.553000000    -0.735000000
C     2.434000000     3.709000000    -1.674000000
C     2.412000000     2.732000000    -2.646000000
H     3.328000000     2.163000000    -2.785000000
C     1.271000000     2.556000000    -3.431000000
O     1.086000000     1.615000000    -4.410000000
C     0.185000000     3.442000000    -3.225000000
C    -1.135000000     3.385000000    -4.088000000
H    -1.519000000     4.407000000    -4.120000000
C    -2.183000000     2.339000000    -3.642000000
C    -3.221000000     2.756000000    -2.795000000
H    -3.235000000     3.823000000    -2.585000000
H    -0.907000000     3.189000000    -5.138000000
C     0.256000000     4.447000000    -2.302000000
H    -0.595000000     5.105000000    -2.147000000
C     1.352000000     4.500000000    -1.409000000
C     1.254000000     5.444000000    -0.237000000
H     0.727000000     6.385000000    -0.410000000
H     2.284000000     5.749000000    -0.042000000
C     0.742000000     4.803000000     1.058000000
C    -0.626000000     4.936000000     1.372000000
H    -1.188000000     5.674000000     0.807000000
C     1.565000000     3.921000000     1.787000000
C     0.980000000     3.149000000     2.751000000
H     1.535000000     2.467000000     3.390000000
C    -0.359000000     3.448000000     3.183000000
O    -0.807000000     2.862000000     4.308000000
C    -1.458000000     1.545000000     3.995000000
C    -0.967000000     0.448000000     4.898000000
C    -1.740000000    -0.737000000     5.006000000
H    -2.651000000    -0.786000000     4.416000000
C     0.153000000     0.616000000     5.698000000
H     0.571000000     1.614000000     5.796000000
O    -2.878000000     1.726000000     4.002000000
H    -1.203000000     1.328000000     2.947000000
C    -1.250000000     4.249000000     2.401000000
C    -2.777000000     4.305000000     2.637000000
H    -3.142000000     5.242000000     2.211000000
H    -2.975000000     4.449000000     3.702000000
C    -3.398000000     3.104000000     2.044000000
C    -3.985000000     3.114000000     0.792000000
H    -3.858000000     4.011000000     0.191000000
C    -3.466000000     1.876000000     2.725000000
C    -3.964000000     0.740000000     2.173000000
H    -3.933000000    -0.221000000     2.681000000
C    -4.630000000     0.796000000     0.925000000
O    -5.065000000    -0.384000000     0.309000000
C    -4.179000000    -0.781000000    -0.705000000
C    -3.875000000    -2.325000000    -0.614000000
C    -3.613000000    -2.889000000     0.580000000
H    -3.615000000    -2.283000000     1.482000000
C    -3.869000000    -3.109000000    -1.810000000
H    -4.112000000    -2.711000000    -2.791000000
O    -4.715000000    -0.395000000    -2.019000000
H    -3.219000000    -0.264000000    -0.556000000
C    -4.616000000     2.002000000     0.224000000
C    -5.200000000     2.215000000    -1.210000000
H    -5.455000000     3.268000000    -1.349000000
H    -6.101000000     1.600000000    -1.257000000
C    -4.112000000     1.791000000    -2.299000000
C    -3.979000000     0.481000000    -2.669000000
C    -2.968000000     0.141000000    -3.499000000
H    -2.827000000    -0.895000000    -3.795000000
C    -2.047000000     1.014000000    -4.011000000
O    -0.997000000     0.463000000    -4.691000000
C     0.360000000     0.403000000    -4.058000000
H     0.224000000     0.358000000    -2.967000000
C     1.146000000    -0.809000000    -4.523000000
C     2.544000000    -0.788000000    -4.455000000
H     3.086000000     0.137000000    -4.278000000
C     0.510000000    -2.000000000    -4.908000000
H    -0.548000000    -2.061000000    -5.152000000
C     1.193000000    -3.188000000    -4.995000000
O     0.560000000    -4.385000000    -5.078000000
C     2.584000000    -3.174000000    -4.911000000
H     3.115000000    -4.112000000    -5.049000000
C     3.272000000    -2.002000000    -4.645000000
O     4.591000000    -2.112000000    -4.715000000
C     5.492000000    -1.257000000    -4.149000000
C     5.678000000    -1.173000000    -2.797000000
H     5.006000000    -1.753000000    -2.168000000
C     6.184000000    -0.473000000    -5.006000000
H     5.998000000    -0.372000000    -6.072000000
C     7.099000000     0.502000000    -4.494000000
H     7.673000000     1.178000000    -5.122000000
C     7.335000000     0.431000000    -3.111000000
H     7.977000000     1.181000000    -2.657000000
C     6.553000000    -0.267000000    -2.269000000
O     6.818000000    -0.299000000    -0.941000000
C     5.925000000     0.210000000     0.003000000
C     5.880000000    -0.470000000     1.214000000
H     6.534000000    -1.276000000     1.537000000
C     5.060000000    -0.020000000     2.204000000
O     5.027000000    -0.645000000     3.409000000
C     4.444000000    -0.114000000     4.609000000
C     3.303000000    -0.643000000     5.221000000
H     2.680000000    -1.417000000     4.778000000
C     5.164000000     0.949000000     5.148000000
H     6.043000000     1.248000000     4.582000000
C     4.822000000     1.505000000     6.344000000
H     5.376000000     2.323000000     6.798000000
C     3.684000000     1.016000000     6.985000000
H     3.375000000     1.512000000     7.902000000
C     2.963000000    -0.025000000     6.415000000
O     1.763000000    -0.307000000     7.098000000
C     0.630000000    -0.445000000     6.383000000
C     0.011000000    -1.671000000     6.391000000
H     0.371000000    -2.425000000     7.087000000
C    -1.217000000    -1.825000000     5.759000000
O    -1.839000000    -2.980000000     5.981000000
C    -2.877000000    -3.428000000     5.185000000
C    -2.547000000    -3.816000000     3.884000000
H    -1.533000000    -3.697000000     3.513000000
C    -4.217000000    -3.614000000     5.610000000
H    -4.492000000    -3.455000000     6.649000000
C    -5.133000000    -4.275000000     4.748000000
H    -6.097000000    -4.617000000     5.115000000
C    -4.786000000    -4.558000000     3.400000000
H    -5.507000000    -5.082000000     2.779000000
C    -3.460000000    -4.408000000     2.995000000
O    -2.962000000    -4.870000000     1.868000000
C    -3.322000000    -4.224000000     0.674000000
C    -3.273000000    -5.033000000    -0.487000000
H    -3.056000000    -6.095000000    -0.405000000
C    -3.574000000    -4.519000000    -1.758000000
O    -3.605000000    -5.251000000    -2.881000000
C    -2.824000000    -5.043000000    -3.994000000
C    -3.352000000    -5.434000000    -5.244000000
H    -4.367000000    -5.820000000    -5.218000000
C    -2.576000000    -5.356000000    -6.448000000
H    -3.061000000    -5.651000000    -7.375000000
C    -1.276000000    -4.857000000    -6.345000000
H    -0.668000000    -4.619000000    -7.214000000
C    -0.756000000    -4.576000000    -5.059000000
C    -1.546000000    -4.618000000    -3.904000000
H    -1.054000000    -4.600000000    -2.935000000
C     0.351000000    -1.882000000     1.185000000
H     0.005000000    -2.712000000     1.796000000
C    -0.489000000    -0.800000000     0.885000000
H    -1.446000000    -0.730000000     1.395000000
C    -0.175000000     0.197000000    -0.061000000
H    -0.832000000     0.991000000    -0.263000000
C     1.095000000    -0.062000000    -0.715000000
H     1.383000000     0.711000000    -1.423000000
C     1.946000000    -1.155000000    -0.413000000
H     2.850000000    -1.309000000    -0.998000000
C     1.601000000    -2.073000000     0.533000000
C     2.384000000    -3.304000000     0.970000000
O     3.521000000    -3.573000000     0.482000000
O     1.865000000    -4.159000000     1.671000000
O     1.945000000    -8.147000000     3.625000000
H     2.068000000    -7.274000000     3.998000000
H     2.644000000    -8.674000000     4.013000000
O     8.111000000    -3.483000000     0.463000000
H     7.258000000    -3.514000000     0.896000000
H     8.439000000    -2.602000000     0.643000000
O     0.752000000    -7.299000000    -0.475000000
H     1.063000000    -6.635000000    -1.091000000
H     0.388000000    -6.798000000     0.254000000
O     3.196000000    -6.573000000     0.981000000
H     3.064000000    -5.630000000     1.084000000
H     2.444000000    -6.969000000     1.421000000
O    -0.751000000    -8.276000000     3.783000000
H    -1.068000000    -7.647000000     3.136000000
H     0.188000000    -8.102000000     3.848000000
O     5.939000000    -3.708000000     1.998000000
H     5.656000000    -4.481000000     2.486000000
H     5.157000000    -3.423000000     1.525000000
O     1.736000000    -7.174000000    -3.282000000
H     2.596000000    -7.376000000    -2.915000000
H     1.372000000    -8.027000000    -3.521000000
O     1.117000000    -5.058000000     6.562000000
H     1.472000000    -5.136000000     5.677000000
H     0.338000000    -5.614000000     6.557000000
O     5.540000000    -5.147000000    -4.361000000
H     5.689000000    -6.029000000    -4.019000000
H     5.143000000    -4.671000000    -3.631000000
O     2.255000000    -5.435000000     4.008000000
H     1.951000000    -5.130000000     3.153000000
H     3.188000000    -5.220000000     4.022000000
O    -0.351000000    -5.885000000     1.926000000
H     0.275000000    -5.198000000     1.696000000
H    -1.115000000    -5.413000000     2.255000000
O     3.851000000    -4.274000000    -2.194000000
H     3.799000000    -4.062000000    -1.262000000
H     2.952000000    -4.491000000    -2.441000000
O     4.581000000    -3.649000000     4.761000000
H     4.821000000    -3.080000000     5.493000000
H     5.081000000    -3.308000000     4.019000000
O     3.552000000    -8.223000000    -1.273000000
H     3.324000000    -7.393000000    -0.855000000
H     3.113000000    -8.887000000    -0.742000000
O     7.655000000    -2.895000000     3.989000000
H     7.557000000    -3.755000000     4.399000000
H     7.124000000    -2.947000000     3.195000000
O     7.216000000    -5.729000000     3.880000000
H     7.983000000    -6.289000000     4.006000000
H     7.079000000    -5.722000000     2.932000000
O     5.483000000    -8.257000000     1.207000000
H     4.602000000    -7.883000000     1.212000000
H     5.957000000    -7.746000000     0.551000000
O     5.201000000    -6.040000000     6.019000000
H     5.044000000    -5.235000000     5.525000000
H     6.019000000    -6.386000000     5.662000000
O     7.086000000    -6.589000000     0.062000000
H     7.930000000    -7.035000000    -0.006000000
H     7.237000000    -5.729000000    -0.331000000
