215
-1460.92407
C     4.755000000     2.161000000     1.321000000
H     4.096000000     2.435000000     2.141000000
C     4.479000000     2.474000000     0.026000000
C     5.278000000     1.974000000    -1.020000000
H     4.989000000     2.154000000    -2.052000000
C     3.145000000     3.068000000    -0.330000000
O     2.712000000     4.122000000     0.568000000
H     2.371000000     2.287000000    -0.318000000
O     3.143000000     3.631000000    -1.660000000
C     1.983000000     3.496000000    -2.428000000
C     1.997000000     2.416000000    -3.352000000
H     2.824000000     1.713000000    -3.398000000
C     0.869000000     2.036000000    -4.056000000
O     0.908000000     0.845000000    -4.780000000
C    -0.303000000     2.886000000    -3.959000000
C    -1.588000000     2.553000000    -4.675000000
H    -2.218000000     3.409000000    -4.924000000
C    -2.345000000     1.539000000    -3.866000000
C    -3.332000000     2.047000000    -3.007000000
H    -3.419000000     3.130000000    -2.985000000
H    -1.384000000     2.264000000    -5.708000000
C    -0.303000000     3.974000000    -3.120000000
H    -1.225000000     4.482000000    -2.848000000
C     0.840000000     4.331000000    -2.327000000
C     0.814000000     5.397000000    -1.279000000
H     0.146000000     6.151000000    -1.700000000
H     1.793000000     5.880000000    -1.238000000
C     0.397000000     4.854000000     0.076000000
C    -0.891000000     4.859000000     0.465000000
H    -1.674000000     5.207000000    -0.204000000
C     1.343000000     4.263000000     0.909000000
C     0.978000000     3.665000000     2.104000000
H     1.751000000     3.134000000     2.654000000
C    -0.313000000     3.722000000     2.499000000
O    -0.588000000     3.048000000     3.704000000
C    -1.282000000     1.818000000     3.656000000
C    -0.726000000     0.758000000     4.672000000
C    -1.548000000    -0.191000000     5.341000000
H    -2.631000000    -0.159000000     5.250000000
C     0.661000000     0.713000000     4.871000000
H     1.280000000     1.577000000     4.646000000
O    -2.693000000     1.911000000     3.816000000
H    -1.074000000     1.424000000     2.650000000
C    -1.331000000     4.302000000     1.693000000
C    -2.739000000     4.313000000     2.228000000
H    -3.265000000     5.170000000     1.801000000
H    -2.709000000     4.572000000     3.288000000
C    -3.453000000     3.069000000     1.850000000
C    -4.102000000     3.015000000     0.601000000
H    -4.053000000     3.905000000    -0.022000000
C    -3.426000000     1.989000000     2.677000000
C    -3.960000000     0.818000000     2.299000000
H    -3.913000000    -0.043000000     2.962000000
C    -4.614000000     0.716000000     1.077000000
O    -4.916000000    -0.509000000     0.682000000
C    -3.993000000    -1.155000000    -0.193000000
C    -3.817000000    -2.619000000     0.178000000
C    -4.042000000    -3.114000000     1.475000000
H    -4.467000000    -2.400000000     2.176000000
C    -3.212000000    -3.540000000    -0.693000000
H    -2.942000000    -3.257000000    -1.707000000
O    -4.540000000    -1.060000000    -1.474000000
H    -3.040000000    -0.607000000    -0.174000000
C    -4.668000000     1.828000000     0.161000000
C    -5.182000000     1.667000000    -1.283000000
H    -5.455000000     2.682000000    -1.579000000
H    -6.045000000     1.000000000    -1.346000000
C    -4.111000000     1.188000000    -2.190000000
C    -3.943000000    -0.188000000    -2.390000000
C    -2.975000000    -0.713000000    -3.227000000
H    -2.889000000    -1.788000000    -3.359000000
C    -2.122000000     0.124000000    -3.886000000
O    -1.119000000    -0.300000000    -4.699000000
C     0.254000000    -0.191000000    -4.253000000
H     0.270000000    -0.052000000    -3.162000000
C     1.069000000    -1.503000000    -4.485000000
C     2.380000000    -1.510000000    -4.125000000
H     2.738000000    -0.577000000    -3.698000000
C     0.460000000    -2.757000000    -4.683000000
H    -0.606000000    -2.855000000    -4.872000000
C     1.142000000    -3.953000000    -4.636000000
O     0.615000000    -5.203000000    -4.871000000
C     2.519000000    -3.876000000    -4.373000000
H     3.074000000    -4.802000000    -4.239000000
C     3.171000000    -2.637000000    -4.197000000
O     4.470000000    -2.567000000    -3.764000000
C     5.213000000    -1.425000000    -3.916000000
C     5.884000000    -0.969000000    -2.828000000
H     5.820000000    -1.441000000    -1.851000000
C     5.470000000    -0.887000000    -5.165000000
H     4.885000000    -1.286000000    -5.991000000
C     6.198000000     0.300000000    -5.274000000
H     6.324000000     0.793000000    -6.235000000
C     6.758000000     0.829000000    -4.091000000
H     7.377000000     1.721000000    -4.044000000
C     6.610000000     0.199000000    -2.890000000
O     7.174000000     0.606000000    -1.725000000
C     6.411000000     1.209000000    -0.720000000
C     6.704000000     0.992000000     0.562000000
H     7.570000000     0.392000000     0.827000000
C     5.887000000     1.452000000     1.619000000
O     6.150000000     1.060000000     2.901000000
C     5.325000000     1.226000000     3.992000000
C     4.297000000     0.294000000     4.295000000
H     4.170000000    -0.606000000     3.698000000
C     5.445000000     2.356000000     4.795000000
H     6.246000000     3.080000000     4.672000000
C     4.555000000     2.558000000     5.862000000
H     4.611000000     3.569000000     6.255000000
C     3.671000000     1.532000000     6.254000000
H     3.032000000     1.521000000     7.133000000
C     3.538000000     0.406000000     5.428000000
O     2.587000000    -0.499000000     5.710000000
C     1.226000000    -0.305000000     5.621000000
C     0.424000000    -1.347000000     6.156000000
H     0.908000000    -2.160000000     6.691000000
C    -0.943000000    -1.276000000     6.036000000
O    -1.711000000    -2.240000000     6.597000000
C    -2.800000000    -2.818000000     6.015000000
C    -2.787000000    -3.550000000     4.849000000
H    -1.814000000    -3.591000000     4.366000000
C    -3.979000000    -2.682000000     6.747000000
H    -3.943000000    -2.110000000     7.671000000
C    -5.144000000    -3.230000000     6.204000000
H    -6.044000000    -3.198000000     6.812000000
C    -5.126000000    -3.992000000     5.012000000
H    -5.982000000    -4.509000000     4.587000000
C    -3.951000000    -4.199000000     4.360000000
O    -4.018000000    -4.892000000     3.181000000
C    -3.651000000    -4.400000000     1.910000000
C    -3.165000000    -5.240000000     0.923000000
H    -3.053000000    -6.281000000     1.217000000
C    -2.920000000    -4.798000000    -0.393000000
O    -2.367000000    -5.753000000    -1.202000000
C    -2.244000000    -5.569000000    -2.492000000
C    -3.283000000    -5.808000000    -3.414000000
H    -4.181000000    -6.239000000    -2.978000000
C    -3.059000000    -5.720000000    -4.817000000
H    -3.837000000    -6.026000000    -5.510000000
C    -1.736000000    -5.536000000    -5.253000000
H    -1.501000000    -5.513000000    -6.314000000
C    -0.658000000    -5.379000000    -4.373000000
C    -0.948000000    -5.349000000    -2.950000000
H    -0.132000000    -5.323000000    -2.232000000
C     0.282000000    -2.138000000     1.614000000
H    -0.250000000    -2.735000000     2.351000000
C    -0.331000000    -1.019000000     0.966000000
H    -1.364000000    -0.797000000     1.219000000
C     0.358000000    -0.185000000     0.127000000
H    -0.160000000     0.672000000    -0.362000000
C     1.671000000    -0.479000000    -0.155000000
H     2.290000000     0.148000000    -0.793000000
C     2.279000000    -1.604000000     0.416000000
H     3.269000000    -1.788000000     0.008000000
C     1.642000000    -2.384000000     1.355000000
C     2.296000000    -3.564000000     1.932000000
O     3.516000000    -3.768000000     1.748000000
O     1.682000000    -4.318000000     2.665000000
O     3.012000000    -4.393000000     4.924000000
H     2.586000000    -4.303000000     4.071000000
H     2.303000000    -4.628000000     5.522000000
O     5.450000000    -8.134000000    -0.441000000
H     4.904000000    -8.712000000     0.092000000
H     5.220000000    -7.252000000    -0.149000000
O     0.797000000    -7.445000000     5.149000000
H     0.922000000    -7.322000000     6.090000000
H     1.590000000    -7.897000000     4.859000000
O     7.016000000    -1.635000000     5.957000000
H     6.542000000    -2.054000000     5.239000000
H     7.937000000    -1.694000000     5.703000000
O     5.104000000    -6.321000000     5.619000000
H     4.469000000    -5.721000000     5.228000000
H     5.950000000    -5.894000000     5.486000000
O     7.072000000    -3.219000000    -0.558000000
H     6.604000000    -2.491000000    -0.150000000
H     7.996000000    -2.977000000    -0.493000000
O     1.763000000    -7.313000000     0.203000000
H     2.271000000    -7.122000000     0.992000000
H     1.066000000    -7.898000000     0.503000000
O     5.563000000    -2.003000000     1.444000000
H     4.857000000    -2.606000000     1.210000000
H     5.727000000    -2.176000000     2.371000000
O    -0.504000000    -8.704000000     1.405000000
H    -0.217000000    -7.874000000     1.786000000
H    -1.458000000    -8.683000000     1.475000000
O     3.262000000    -6.687000000     2.442000000
H     3.928000000    -6.319000000     1.861000000
H     2.797000000    -5.925000000     2.787000000
O     7.342000000    -7.233000000     2.153000000
H     7.237000000    -6.466000000     2.717000000
H     7.220000000    -6.895000000     1.266000000
O     0.108000000    -6.457000000     2.807000000
H     0.544000000    -5.624000000     2.630000000
H     0.094000000    -6.521000000     3.762000000
O     5.024000000    -5.516000000     0.307000000
H     4.532000000    -4.826000000     0.753000000
H     5.884000000    -5.129000000     0.142000000
O     2.795000000    -9.024000000     4.111000000
H     3.076000000    -8.459000000     3.392000000
H     2.163000000    -9.623000000     3.713000000
O     7.502000000    -4.874000000     3.670000000
H     7.363000000    -4.605000000     4.578000000
H     8.099000000    -4.215000000     3.315000000
O     2.787000000    -5.541000000    -1.758000000
H     2.371000000    -5.886000000    -0.968000000
H     3.439000000    -4.919000000    -1.433000000
O     6.480000000    -5.061000000    -2.522000000
H     5.841000000    -5.647000000    -2.117000000
H     6.762000000    -4.486000000    -1.811000000
O     3.628000000    -8.159000000    -2.970000000
H     3.380000000    -7.301000000    -2.626000000
H     3.880000000    -8.664000000    -2.197000000
O     5.347000000    -2.859000000     4.009000000
H     4.944000000    -2.427000000     4.762000000
H     4.680000000    -3.472000000     3.698000000
