215
-1454.39555
C     4.143000000     1.974000000     1.684000000
H     3.375000000     2.156000000     2.431000000
C     3.959000000     2.555000000     0.411000000
C     4.858000000     2.090000000    -0.585000000
H     4.662000000     2.389000000    -1.611000000
C     2.709000000     3.396000000     0.135000000
O     2.449000000     4.446000000     1.091000000
H     1.892000000     2.659000000     0.139000000
O     2.743000000     3.906000000    -1.203000000
C     1.592000000     3.851000000    -1.965000000
C     1.631000000     2.878000000    -3.019000000
H     2.519000000     2.263000000    -3.142000000
C     0.449000000     2.672000000    -3.794000000
O     0.487000000     1.638000000    -4.748000000
C    -0.660000000     3.445000000    -3.527000000
C    -1.989000000     3.195000000    -4.254000000
H    -2.648000000     4.052000000    -4.409000000
C    -2.806000000     2.052000000    -3.685000000
C    -3.688000000     2.262000000    -2.601000000
H    -3.923000000     3.263000000    -2.248000000
H    -1.689000000     2.886000000    -5.258000000
C    -0.596000000     4.471000000    -2.569000000
H    -1.438000000     5.128000000    -2.367000000
C     0.497000000     4.684000000    -1.775000000
C     0.352000000     5.675000000    -0.671000000
H    -0.459000000     6.406000000    -0.708000000
H     1.187000000     6.378000000    -0.697000000
C     0.083000000     5.015000000     0.741000000
C    -1.223000000     4.959000000     1.151000000
H    -1.958000000     5.363000000     0.460000000
C     1.073000000     4.539000000     1.514000000
C     0.880000000     3.957000000     2.705000000
H     1.762000000     3.601000000     3.231000000
C    -0.469000000     3.788000000     3.099000000
O    -0.674000000     2.939000000     4.207000000
C    -1.063000000     1.631000000     3.881000000
C    -0.484000000     0.588000000     4.860000000
C    -1.045000000    -0.606000000     5.028000000
H    -1.983000000    -0.683000000     4.484000000
C     0.796000000     0.847000000     5.366000000
H     1.284000000     1.806000000     5.217000000
O    -2.525000000     1.545000000     4.034000000
H    -0.676000000     1.374000000     2.884000000
C    -1.560000000     4.310000000     2.327000000
C    -3.018000000     4.014000000     2.645000000
H    -3.640000000     4.776000000     2.170000000
H    -3.216000000     4.079000000     3.717000000
C    -3.420000000     2.636000000     2.068000000
C    -4.114000000     2.560000000     0.817000000
H    -4.344000000     3.438000000     0.219000000
C    -3.261000000     1.493000000     2.845000000
C    -3.736000000     0.242000000     2.381000000
H    -3.611000000    -0.650000000     2.988000000
C    -4.405000000     0.184000000     1.133000000
O    -4.682000000    -1.092000000     0.653000000
C    -3.805000000    -1.526000000    -0.437000000
C    -3.383000000    -2.985000000    -0.363000000
C    -2.840000000    -3.444000000     0.840000000
H    -2.879000000    -2.805000000     1.719000000
C    -3.384000000    -3.848000000    -1.489000000
H    -3.641000000    -3.471000000    -2.475000000
O    -4.441000000    -1.253000000    -1.741000000
H    -2.848000000    -0.998000000    -0.559000000
C    -4.596000000     1.327000000     0.367000000
C    -5.389000000     1.316000000    -0.940000000
H    -5.978000000     2.235000000    -0.979000000
H    -6.107000000     0.496000000    -0.890000000
C    -4.346000000     1.179000000    -1.998000000
C    -4.002000000    -0.145000000    -2.430000000
C    -3.166000000    -0.400000000    -3.561000000
H    -2.960000000    -1.444000000    -3.782000000
C    -2.473000000     0.738000000    -4.089000000
O    -1.422000000     0.381000000    -4.898000000
C    -0.159000000     0.451000000    -4.322000000
H    -0.329000000     0.473000000    -3.236000000
C     0.665000000    -0.868000000    -4.541000000
C     1.990000000    -0.923000000    -4.059000000
H     2.504000000    -0.142000000    -3.504000000
C     0.078000000    -2.082000000    -5.031000000
H    -0.961000000    -2.038000000    -5.347000000
C     0.792000000    -3.249000000    -5.005000000
O     0.287000000    -4.371000000    -5.666000000
C     2.061000000    -3.226000000    -4.583000000
H     2.633000000    -4.151000000    -4.595000000
C     2.683000000    -2.117000000    -4.115000000
O     3.930000000    -2.172000000    -3.579000000
C     4.906000000    -1.201000000    -3.641000000
C     5.395000000    -0.654000000    -2.464000000
H     4.963000000    -0.985000000    -1.523000000
C     5.357000000    -0.728000000    -4.875000000
H     4.989000000    -1.277000000    -5.738000000
C     6.323000000     0.264000000    -4.885000000
H     6.779000000     0.652000000    -5.792000000
C     6.817000000     0.802000000    -3.676000000
H     7.550000000     1.605000000    -3.664000000
C     6.327000000     0.342000000    -2.468000000
O     6.764000000     0.820000000    -1.229000000
C     5.903000000     1.271000000    -0.260000000
C     6.200000000     1.032000000     1.056000000
H     7.138000000     0.521000000     1.257000000
C     5.263000000     1.235000000     2.036000000
O     5.547000000     0.613000000     3.182000000
C     5.124000000     0.939000000     4.459000000
C     3.985000000     0.358000000     5.082000000
H     3.471000000    -0.398000000     4.494000000
C     5.783000000     1.947000000     5.082000000
H     6.508000000     2.562000000     4.555000000
C     5.343000000     2.392000000     6.306000000
H     6.003000000     3.141000000     6.736000000
C     4.179000000     1.872000000     6.881000000
H     3.782000000     2.282000000     7.806000000
C     3.587000000     0.778000000     6.347000000
O     2.498000000     0.151000000     6.934000000
C     1.343000000    -0.154000000     6.200000000
C     0.706000000    -1.329000000     6.474000000
H     1.108000000    -1.952000000     7.269000000
C    -0.471000000    -1.604000000     5.804000000
O    -1.112000000    -2.730000000     6.189000000
C    -2.008000000    -3.338000000     5.372000000
C    -1.590000000    -3.909000000     4.116000000
H    -0.535000000    -3.870000000     3.859000000
C    -3.377000000    -3.171000000     5.623000000
H    -3.674000000    -2.691000000     6.552000000
C    -4.286000000    -3.848000000     4.809000000
H    -5.352000000    -3.799000000     5.014000000
C    -3.896000000    -4.642000000     3.719000000
H    -4.603000000    -5.162000000     3.076000000
C    -2.522000000    -4.584000000     3.329000000
O    -2.001000000    -5.131000000     2.204000000
C    -2.448000000    -4.739000000     0.988000000
C    -2.438000000    -5.627000000    -0.070000000
H    -2.162000000    -6.677000000    -0.018000000
C    -2.962000000    -5.195000000    -1.333000000
O    -2.960000000    -6.066000000    -2.412000000
C    -2.442000000    -5.887000000    -3.649000000
C    -3.035000000    -6.709000000    -4.680000000
H    -3.723000000    -7.517000000    -4.444000000
C    -2.554000000    -6.629000000    -5.986000000
H    -2.926000000    -7.276000000    -6.776000000
C    -1.422000000    -5.848000000    -6.248000000
H    -0.909000000    -5.930000000    -7.203000000
C    -0.869000000    -5.055000000    -5.265000000
C    -1.368000000    -5.057000000    -3.929000000
H    -0.841000000    -4.509000000    -3.152000000
C     0.897000000    -1.415000000     1.859000000
H     0.596000000    -1.895000000     2.786000000
C     0.025000000    -0.511000000     1.252000000
H    -0.950000000    -0.376000000     1.713000000
C     0.320000000     0.279000000     0.133000000
H    -0.318000000     1.002000000    -0.212000000
C     1.592000000     0.024000000    -0.454000000
H     1.972000000     0.577000000    -1.309000000
C     2.464000000    -0.934000000     0.075000000
H     3.495000000    -0.945000000    -0.270000000
C     2.159000000    -1.661000000     1.256000000
C     3.126000000    -2.601000000     1.879000000
O     4.063000000    -3.046000000     1.230000000
O     2.806000000    -3.241000000     2.839000000
O     4.046000000    -7.253000000     5.548000000
H     4.262000000    -6.585000000     4.898000000
H     4.808000000    -7.832000000     5.560000000
O     7.939000000    -7.111000000     3.638000000
H     8.200000000    -7.498000000     2.802000000
H     7.973000000    -6.166000000     3.485000000
O     1.438000000    -7.671000000    -2.128000000
H     1.613000000    -7.574000000    -3.065000000
H     2.198000000    -7.276000000    -1.701000000
O     1.927000000    -8.614000000     1.969000000
H     1.874000000    -7.675000000     2.146000000
H     1.233000000    -8.777000000     1.330000000
O     1.231000000    -6.683000000     5.055000000
H     1.325000000    -6.841000000     4.116000000
H     2.055000000    -6.991000000     5.434000000
O     2.388000000    -4.332000000     8.265000000
H     1.803000000    -5.059000000     8.053000000
H     2.675000000    -4.000000000     7.415000000
O    -1.255000000    -7.332000000     4.020000000
H    -0.690000000    -6.626000000     4.334000000
H    -2.107000000    -6.917000000     3.887000000
O     4.297000000    -7.665000000    -1.393000000
H     4.361000000    -7.378000000    -0.482000000
H     4.949000000    -7.138000000    -1.856000000
O    -0.262000000    -2.461000000    -1.599000000
H     0.465000000    -1.958000000    -1.231000000
H    -0.865000000    -2.583000000    -0.866000000
O     2.995000000    -3.558000000     5.738000000
H     2.649000000    -3.580000000     4.846000000
H     3.938000000    -3.686000000     5.633000000
O     5.942000000    -2.275000000     2.954000000
H     5.292000000    -2.615000000     2.340000000
H     5.763000000    -1.335000000     2.996000000
O     1.586000000    -5.765000000     2.163000000
H     2.185000000    -5.143000000     2.576000000
H     1.581000000    -5.514000000     1.239000000
O     3.005000000    -4.744000000    -1.423000000
H     3.028000000    -3.972000000    -0.858000000
H     2.390000000    -4.513000000    -2.120000000
O     7.274000000    -3.112000000    -0.199000000
H     7.532000000    -3.347000000     0.692000000
H     6.351000000    -3.361000000    -0.255000000
O     4.735000000    -5.507000000     3.164000000
H     4.578000000    -6.164000000     2.486000000
H     4.500000000    -4.676000000     2.752000000
O     7.982000000    -4.139000000     2.524000000
H     8.285000000    -4.117000000     3.432000000
H     7.274000000    -3.495000000     2.492000000
O     7.519000000    -4.431000000     7.231000000
H     6.752000000    -4.317000000     6.671000000
H     8.255000000    -4.142000000     6.692000000
O     4.547000000    -8.014000000     1.914000000
H     5.064000000    -8.649000000     2.409000000
H     3.660000000    -8.374000000     1.918000000
O     5.942000000    -4.072000000     5.019000000
H     5.818000000    -3.343000000     4.412000000
H     5.733000000    -4.851000000     4.505000000
