215
-1466.20241
C     4.516000000     1.487000000     1.351000000
H     4.048000000     2.034000000     2.166000000
C     4.056000000     1.658000000     0.072000000
C     4.721000000     1.022000000    -0.963000000
H     4.330000000     1.016000000    -1.978000000
C     2.838000000     2.648000000    -0.203000000
O     2.769000000     3.535000000     0.927000000
H     1.935000000     2.022000000    -0.254000000
O     2.977000000     3.425000000    -1.411000000
C     1.856000000     3.343000000    -2.211000000
C     1.833000000     2.500000000    -3.281000000
H     2.705000000     1.904000000    -3.538000000
C     0.640000000     2.408000000    -4.027000000
O     0.583000000     1.400000000    -4.951000000
C    -0.427000000     3.210000000    -3.708000000
C    -1.750000000     3.048000000    -4.336000000
H    -2.448000000     3.887000000    -4.361000000
C    -2.583000000     1.967000000    -3.678000000
C    -3.613000000     2.285000000    -2.779000000
H    -3.877000000     3.335000000    -2.689000000
H    -1.649000000     2.718000000    -5.372000000
C    -0.361000000     4.183000000    -2.660000000
H    -1.166000000     4.880000000    -2.439000000
C     0.789000000     4.222000000    -1.900000000
C     0.949000000     5.226000000    -0.779000000
H     0.249000000     6.037000000    -0.988000000
H     1.931000000     5.701000000    -0.816000000
C     0.600000000     4.605000000     0.575000000
C    -0.675000000     4.731000000     1.065000000
H    -1.432000000     5.205000000     0.446000000
C     1.525000000     3.919000000     1.368000000
C     1.081000000     3.317000000     2.550000000
H     1.733000000     2.605000000     3.050000000
C    -0.191000000     3.444000000     3.080000000
O    -0.512000000     2.837000000     4.241000000
C    -1.135000000     1.550000000     3.994000000
C    -0.589000000     0.533000000     4.971000000
C    -1.489000000    -0.336000000     5.678000000
H    -2.570000000    -0.270000000     5.595000000
C     0.761000000     0.305000000     5.041000000
H     1.419000000     0.878000000     4.391000000
O    -2.608000000     1.597000000     4.028000000
H    -0.883000000     1.067000000     3.038000000
C    -1.141000000     4.113000000     2.262000000
C    -2.574000000     4.088000000     2.674000000
H    -3.069000000     4.994000000     2.317000000
H    -2.718000000     4.108000000     3.757000000
C    -3.270000000     2.858000000     2.116000000
C    -3.956000000     2.895000000     0.862000000
H    -3.845000000     3.837000000     0.332000000
C    -3.241000000     1.656000000     2.845000000
C    -3.889000000     0.538000000     2.371000000
H    -3.912000000    -0.326000000     3.031000000
C    -4.528000000     0.637000000     1.117000000
O    -4.997000000    -0.540000000     0.586000000
C    -4.083000000    -1.215000000    -0.320000000
C    -3.654000000    -2.665000000     0.014000000
C    -3.759000000    -3.035000000     1.378000000
H    -4.320000000    -2.411000000     2.069000000
C    -2.892000000    -3.442000000    -0.826000000
H    -2.711000000    -3.108000000    -1.844000000
O    -4.562000000    -1.040000000    -1.636000000
H    -3.178000000    -0.594000000    -0.259000000
C    -4.592000000     1.806000000     0.342000000
C    -5.278000000     1.773000000    -1.030000000
H    -5.683000000     2.777000000    -1.170000000
H    -6.154000000     1.121000000    -1.054000000
C    -4.302000000     1.327000000    -2.062000000
C    -4.001000000    -0.027000000    -2.263000000
C    -3.043000000    -0.342000000    -3.235000000
H    -2.858000000    -1.395000000    -3.433000000
C    -2.304000000     0.562000000    -3.881000000
O    -1.319000000     0.144000000    -4.697000000
C     0.100000000     0.144000000    -4.375000000
H     0.245000000     0.084000000    -3.286000000
C     0.802000000    -0.944000000    -5.042000000
C     2.140000000    -0.785000000    -5.222000000
H     2.619000000     0.181000000    -5.088000000
C     0.270000000    -2.220000000    -5.090000000
H    -0.786000000    -2.361000000    -4.877000000
C     1.009000000    -3.307000000    -5.546000000
O     0.492000000    -4.583000000    -5.601000000
C     2.367000000    -3.115000000    -5.820000000
H     2.963000000    -3.902000000    -6.276000000
C     2.928000000    -1.839000000    -5.656000000
O     4.289000000    -1.746000000    -5.823000000
C     5.177000000    -1.014000000    -5.099000000
C     5.371000000    -1.256000000    -3.755000000
H     4.817000000    -2.022000000    -3.217000000
C     5.880000000     0.066000000    -5.688000000
H     5.540000000     0.367000000    -6.676000000
C     6.723000000     0.898000000    -4.926000000
H     7.197000000     1.815000000    -5.267000000
C     6.947000000     0.639000000    -3.580000000
H     7.660000000     1.212000000    -2.993000000
C     6.219000000    -0.395000000    -3.029000000
O     6.475000000    -0.545000000    -1.643000000
C     5.798000000     0.151000000    -0.670000000
C     6.177000000    -0.001000000     0.653000000
H     7.028000000    -0.620000000     0.922000000
C     5.494000000     0.598000000     1.670000000
O     6.029000000     0.491000000     2.956000000
C     5.335000000     0.733000000     4.113000000
C     4.181000000    -0.018000000     4.470000000
H     3.919000000    -0.884000000     3.867000000
C     5.592000000     1.936000000     4.781000000
H     6.427000000     2.553000000     4.456000000
C     4.814000000     2.235000000     5.905000000
H     5.004000000     3.173000000     6.421000000
C     3.932000000     1.285000000     6.412000000
H     3.391000000     1.457000000     7.339000000
C     3.650000000     0.103000000     5.757000000
O     2.679000000    -0.718000000     6.233000000
C     1.303000000    -0.663000000     5.899000000
C     0.421000000    -1.490000000     6.555000000
H     0.755000000    -2.362000000     7.111000000
C    -0.963000000    -1.394000000     6.374000000
O    -1.927000000    -2.263000000     6.892000000
C    -2.971000000    -2.695000000     6.115000000
C    -2.744000000    -3.214000000     4.841000000
H    -1.739000000    -3.456000000     4.504000000
C    -4.256000000    -2.646000000     6.612000000
H    -4.440000000    -2.253000000     7.609000000
C    -5.307000000    -3.150000000     5.845000000
H    -6.309000000    -3.108000000     6.263000000
C    -5.091000000    -3.712000000     4.645000000
H    -5.884000000    -4.242000000     4.125000000
C    -3.784000000    -3.825000000     4.189000000
O    -3.457000000    -4.642000000     3.062000000
C    -3.255000000    -4.236000000     1.738000000
C    -2.583000000    -5.069000000     0.795000000
H    -2.241000000    -6.061000000     1.079000000
C    -2.286000000    -4.655000000    -0.474000000
O    -1.628000000    -5.487000000    -1.372000000
C    -1.709000000    -5.330000000    -2.749000000
C    -2.920000000    -5.685000000    -3.396000000
H    -3.770000000    -6.007000000    -2.799000000
C    -2.898000000    -5.702000000    -4.809000000
H    -3.777000000    -5.975000000    -5.387000000
C    -1.761000000    -5.305000000    -5.517000000
H    -1.751000000    -5.219000000    -6.601000000
C    -0.609000000    -4.885000000    -4.872000000
C    -0.592000000    -4.890000000    -3.486000000
H     0.283000000    -4.377000000    -3.097000000
C    -0.110000000    -2.189000000     1.251000000
H    -0.522000000    -2.862000000     1.999000000
C    -0.742000000    -0.924000000     1.118000000
H    -1.584000000    -0.639000000     1.743000000
C    -0.220000000    -0.064000000     0.188000000
H    -0.751000000     0.905000000     0.052000000
C     0.917000000    -0.438000000    -0.566000000
H     1.363000000     0.254000000    -1.276000000
C     1.565000000    -1.634000000    -0.423000000
H     2.451000000    -1.741000000    -1.044000000
C     1.031000000    -2.509000000     0.496000000
C     1.618000000    -3.885000000     0.601000000
O     2.531000000    -4.282000000    -0.134000000
O     1.141000000    -4.712000000     1.311000000
O     5.826000000    -2.957000000     3.760000000
H     5.511000000    -2.919000000     2.857000000
H     5.033000000    -2.911000000     4.293000000
O     3.594000000    -3.274000000     5.627000000
H     2.887000000    -3.876000000     5.858000000
H     3.337000000    -2.440000000     6.022000000
O     5.127000000    -9.058000000    -1.055000000
H     4.777000000    -9.686000000    -1.687000000
H     4.410000000    -8.914000000    -0.437000000
O     7.217000000    -5.988000000     1.583000000
H     6.371000000    -5.872000000     1.149000000
H     7.316000000    -5.207000000     2.127000000
O     5.599000000    -5.530000000    -4.756000000
H     4.908000000    -6.042000000    -5.176000000
H     5.206000000    -5.221000000    -3.940000000
O     1.167000000   -10.057000000    -0.891000000
H     0.966000000    -9.818000000    -1.796000000
H     0.571000000    -9.525000000    -0.364000000
O     1.991000000    -7.620000000     5.756000000
H     1.416000000    -8.138000000     5.192000000
H     1.602000000    -6.745000000     5.754000000
O    -0.967000000    -8.589000000     0.371000000
H    -0.419000000    -8.207000000     1.058000000
H    -1.285000000    -9.409000000     0.747000000
O     0.753000000    -7.190000000     1.930000000
H     0.882000000    -6.284000000     1.649000000
H     0.558000000    -7.126000000     2.865000000
O     3.562000000    -4.283000000    -2.661000000
H     2.902000000    -4.812000000    -3.110000000
H     3.203000000    -4.146000000    -1.784000000
O    -1.852000000    -6.614000000     4.950000000
H    -1.905000000    -6.264000000     5.839000000
H    -1.538000000    -5.880000000     4.422000000
O     0.064000000    -5.074000000     3.605000000
H     0.144000000    -5.064000000     2.652000000
H     0.936000000    -4.838000000     3.922000000
O     2.916000000    -5.016000000     3.325000000
H     2.504000000    -4.969000000     2.462000000
H     3.536000000    -4.286000000     3.334000000
O     2.995000000    -8.176000000     0.556000000
H     2.368000000    -7.836000000     1.194000000
H     2.504000000    -8.217000000    -0.265000000
O     7.341000000    -3.490000000    -0.267000000
H     8.094000000    -3.335000000     0.302000000
H     7.595000000    -4.242000000    -0.802000000
O     1.196000000    -6.676000000    -1.347000000
H     0.341000000    -6.339000000    -1.080000000
H     1.824000000    -6.061000000    -0.970000000
O     4.785000000    -6.040000000     0.581000000
H     4.136000000    -6.621000000     0.186000000
H     4.394000000    -5.169000000     0.523000000
O     2.109000000    -7.146000000    -3.747000000
H     1.798000000    -8.012000000    -4.010000000
H     1.692000000    -6.989000000    -2.900000000
O     4.878000000    -3.113000000     1.103000000
H     4.218000000    -3.351000000     0.451000000
H     5.712000000    -3.192000000     0.640000000
