215
-1436.80800
C     4.963000000     1.343000000     0.825000000
H     4.550000000     1.871000000     1.681000000
C     4.592000000     1.614000000    -0.522000000
C     5.224000000     0.954000000    -1.548000000
H     4.944000000     1.109000000    -2.586000000
C     3.445000000     2.563000000    -0.790000000
O     3.479000000     3.687000000     0.172000000
H     2.552000000     1.956000000    -0.579000000
O     3.334000000     2.891000000    -2.199000000
C     2.212000000     3.077000000    -2.902000000
C     2.012000000     2.119000000    -3.836000000
H     2.794000000     1.391000000    -4.030000000
C     0.690000000     1.984000000    -4.378000000
O     0.423000000     0.835000000    -5.112000000
C    -0.243000000     2.934000000    -4.089000000
C    -1.700000000     2.791000000    -4.674000000
H    -2.066000000     3.817000000    -4.603000000
C    -2.577000000     1.927000000    -3.771000000
C    -3.408000000     2.523000000    -2.850000000
H    -3.319000000     3.605000000    -2.904000000
H    -1.807000000     2.522000000    -5.727000000
C     0.075000000     3.944000000    -3.163000000
H    -0.592000000     4.775000000    -2.948000000
C     1.296000000     4.022000000    -2.536000000
C     1.592000000     5.138000000    -1.503000000
H     0.961000000     6.003000000    -1.717000000
H     2.622000000     5.489000000    -1.597000000
C     1.330000000     4.692000000    -0.122000000
C     0.032000000     4.886000000     0.350000000
H    -0.631000000     5.338000000    -0.383000000
C     2.299000000     4.105000000     0.739000000
C     1.943000000     3.835000000     1.991000000
H     2.698000000     3.405000000     2.644000000
C     0.630000000     4.037000000     2.441000000
O     0.274000000     3.442000000     3.666000000
C    -0.624000000     2.249000000     3.766000000
C    -0.174000000     1.203000000     4.730000000
C    -1.071000000     0.516000000     5.550000000
H    -2.095000000     0.874000000     5.476000000
C     1.174000000     0.808000000     4.662000000
H     1.842000000     1.385000000     4.028000000
O    -2.007000000     2.699000000     3.917000000
H    -0.568000000     1.671000000     2.832000000
C    -0.371000000     4.610000000     1.618000000
C    -1.824000000     4.913000000     2.087000000
H    -2.217000000     5.776000000     1.546000000
H    -1.754000000     5.186000000     3.142000000
C    -2.848000000     3.763000000     1.985000000
C    -3.595000000     3.638000000     0.810000000
H    -3.419000000     4.298000000    -0.035000000
C    -2.839000000     2.680000000     2.864000000
C    -3.612000000     1.551000000     2.596000000
H    -3.649000000     0.749000000     3.328000000
C    -4.243000000     1.460000000     1.350000000
O    -4.779000000     0.231000000     1.113000000
C    -4.111000000    -0.556000000     0.128000000
C    -4.076000000    -2.036000000     0.602000000
C    -3.457000000    -2.375000000     1.842000000
H    -3.075000000    -1.597000000     2.497000000
C    -4.611000000    -2.994000000    -0.246000000
H    -5.023000000    -2.696000000    -1.207000000
O    -4.669000000    -0.459000000    -1.167000000
H    -3.061000000    -0.241000000     0.216000000
C    -4.321000000     2.507000000     0.453000000
C    -4.995000000     2.460000000    -0.895000000
H    -5.358000000     3.416000000    -1.278000000
H    -5.962000000     1.959000000    -0.823000000
C    -4.164000000     1.783000000    -1.969000000
C    -4.008000000     0.378000000    -1.976000000
C    -3.239000000    -0.263000000    -2.949000000
H    -3.347000000    -1.341000000    -3.038000000
C    -2.502000000     0.513000000    -3.881000000
O    -1.655000000    -0.141000000    -4.823000000
C    -0.332000000    -0.153000000    -4.374000000
H    -0.184000000     0.235000000    -3.356000000
C     0.276000000    -1.531000000    -4.342000000
C     1.704000000    -1.730000000    -4.440000000
H     2.398000000    -0.900000000    -4.544000000
C    -0.554000000    -2.635000000    -4.073000000
H    -1.617000000    -2.429000000    -3.969000000
C     0.034000000    -3.861000000    -3.880000000
O    -0.695000000    -4.894000000    -3.315000000
C     1.381000000    -4.103000000    -4.129000000
H     1.866000000    -5.064000000    -3.978000000
C     2.234000000    -3.025000000    -4.435000000
O     3.569000000    -3.399000000    -4.513000000
C     4.537000000    -2.510000000    -4.572000000
C     5.113000000    -2.026000000    -3.375000000
H     4.664000000    -2.356000000    -2.441000000
C     4.990000000    -2.056000000    -5.818000000
H     4.499000000    -2.504000000    -6.678000000
C     6.047000000    -1.082000000    -5.888000000
H     6.386000000    -0.877000000    -6.900000000
C     6.533000000    -0.558000000    -4.695000000
H     7.460000000     0.009000000    -4.704000000
C     6.105000000    -1.092000000    -3.448000000
O     6.640000000    -0.735000000    -2.256000000
C     6.073000000    -0.073000000    -1.197000000
C     6.356000000    -0.492000000     0.128000000
H     7.068000000    -1.271000000     0.388000000
C     5.842000000     0.305000000     1.123000000
O     6.310000000     0.027000000     2.420000000
C     5.735000000     0.427000000     3.596000000
C     4.624000000    -0.247000000     4.026000000
H     4.274000000    -1.170000000     3.570000000
C     6.227000000     1.558000000     4.229000000
H     7.144000000     2.001000000     3.848000000
C     5.541000000     2.026000000     5.362000000
H     5.874000000     2.927000000     5.871000000
C     4.497000000     1.253000000     5.889000000
H     4.023000000     1.613000000     6.798000000
C     3.993000000     0.146000000     5.170000000
O     2.960000000    -0.540000000     5.736000000
C     1.683000000    -0.231000000     5.568000000
C     0.742000000    -0.895000000     6.370000000
H     1.085000000    -1.751000000     6.945000000
C    -0.634000000    -0.559000000     6.289000000
O    -1.499000000    -1.357000000     6.982000000
C    -2.514000000    -2.115000000     6.352000000
C    -2.262000000    -2.802000000     5.132000000
H    -1.309000000    -2.626000000     4.641000000
C    -3.782000000    -2.275000000     6.909000000
H    -4.024000000    -1.766000000     7.839000000
C    -4.709000000    -3.105000000     6.349000000
H    -5.615000000    -3.370000000     6.889000000
C    -4.442000000    -3.855000000     5.238000000
H    -5.125000000    -4.560000000     4.771000000
C    -3.236000000    -3.609000000     4.593000000
O    -2.938000000    -4.186000000     3.395000000
C    -3.385000000    -3.716000000     2.139000000
C    -3.876000000    -4.701000000     1.270000000
H    -3.726000000    -5.745000000     1.533000000
C    -4.512000000    -4.305000000     0.129000000
O    -4.834000000    -5.260000000    -0.766000000
C    -4.063000000    -5.384000000    -1.909000000
C    -4.731000000    -5.859000000    -3.055000000
H    -5.767000000    -6.188000000    -3.060000000
C    -4.097000000    -5.911000000    -4.305000000
H    -4.579000000    -6.298000000    -5.199000000
C    -2.750000000    -5.626000000    -4.354000000
H    -2.232000000    -5.768000000    -5.299000000
C    -2.034000000    -5.172000000    -3.270000000
C    -2.678000000    -4.985000000    -1.993000000
H    -2.115000000    -4.449000000    -1.233000000
C     0.422000000    -1.570000000     2.011000000
H     0.089000000    -1.893000000     2.994000000
C    -0.272000000    -0.534000000     1.374000000
H    -1.177000000    -0.095000000     1.786000000
C     0.202000000     0.028000000     0.165000000
H    -0.339000000     0.831000000    -0.224000000
C     1.323000000    -0.547000000    -0.421000000
H     1.668000000    -0.057000000    -1.328000000
C     2.041000000    -1.594000000     0.191000000
H     2.897000000    -2.051000000    -0.299000000
C     1.516000000    -2.128000000     1.413000000
C     2.203000000    -3.242000000     2.219000000
O     3.228000000    -3.781000000     1.831000000
O     1.662000000    -3.648000000     3.262000000
O     5.049000000    -2.632000000     6.561000000
H     4.540000000    -2.190000000     5.881000000
H     5.435000000    -3.388000000     6.118000000
O     4.755000000    -5.988000000    -3.104000000
H     4.633000000    -5.777000000    -2.178000000
H     3.868000000    -6.023000000    -3.461000000
O     4.019000000    -6.589000000     6.933000000
H     3.225000000    -6.074000000     7.070000000
H     3.704000000    -7.479000000     6.775000000
O     4.819000000    -6.499000000     3.986000000
H     5.723000000    -6.777000000     4.133000000
H     4.291000000    -7.138000000     4.464000000
O     3.810000000    -6.008000000    -0.281000000
H     3.900000000    -5.333000000     0.392000000
H     2.965000000    -6.417000000    -0.098000000
O    -0.114000000    -6.076000000     6.228000000
H    -0.277000000    -5.761000000     7.117000000
H     0.676000000    -5.612000000     5.951000000
O     0.359000000    -7.485000000    -1.386000000
H     0.402000000    -6.538000000    -1.254000000
H     1.008000000    -7.661000000    -2.068000000
O     2.112000000    -4.680000000     5.606000000
H     1.993000000    -4.544000000     4.666000000
H     2.972000000    -4.306000000     5.795000000
O    -0.597000000    -8.136000000     3.241000000
H     0.182000000    -7.650000000     3.510000000
H    -1.326000000    -7.655000000     3.633000000
O     5.826000000    -4.305000000     0.846000000
H     6.272000000    -4.955000000     1.390000000
H     4.982000000    -4.172000000     1.277000000
O     6.997000000    -6.724000000     1.576000000
H     6.821000000    -6.811000000     0.639000000
H     7.936000000    -6.545000000     1.628000000
O     3.332000000    -9.009000000     2.181000000
H     4.156000000    -9.111000000     2.658000000
H     3.208000000    -8.062000000     2.118000000
O     7.252000000    -4.562000000    -1.544000000
H     6.856000000    -4.282000000    -0.719000000
H     6.764000000    -4.088000000    -2.217000000
O    -0.195000000    -5.388000000     2.596000000
H    -1.067000000    -5.336000000     2.987000000
H     0.327000000    -4.756000000     3.090000000
O     5.129000000    -3.825000000     3.802000000
H     4.468000000    -3.717000000     3.119000000
H     5.013000000    -4.725000000     4.107000000
O     1.704000000    -7.681000000     4.575000000
H     1.217000000    -7.276000000     5.292000000
H     2.006000000    -6.943000000     4.045000000
O     1.345000000    -4.556000000    -0.796000000
H     0.808000000    -3.893000000    -1.232000000
H     1.888000000    -4.059000000    -0.185000000
O     2.244000000    -6.617000000     2.020000000
H     1.316000000    -6.385000000     1.984000000
H     2.702000000    -5.776000000     2.001000000
O     7.716000000    -3.284000000     2.929000000
H     7.119000000    -3.393000000     3.669000000
H     7.144000000    -3.086000000     2.187000000
