215
-1451.26003
C     4.467000000     2.754000000     1.460000000
H     3.984000000     3.458000000     2.134000000
C     4.018000000     2.765000000     0.114000000
C     4.732000000     1.958000000    -0.789000000
H     4.449000000     1.892000000    -1.836000000
C     2.659000000     3.361000000    -0.342000000
O     2.367000000     4.523000000     0.494000000
H     1.823000000     2.658000000    -0.214000000
O     2.732000000     3.854000000    -1.650000000
C     1.660000000     3.615000000    -2.428000000
C     1.776000000     2.508000000    -3.266000000
H     2.703000000     1.942000000    -3.225000000
C     0.678000000     1.985000000    -3.922000000
O     0.861000000     0.813000000    -4.628000000
C    -0.567000000     2.720000000    -3.809000000
C    -1.776000000     2.447000000    -4.631000000
H    -2.311000000     3.389000000    -4.770000000
C    -2.648000000     1.369000000    -3.973000000
C    -3.618000000     1.685000000    -2.999000000
H    -3.794000000     2.733000000    -2.772000000
H    -1.473000000     2.027000000    -5.592000000
C    -0.675000000     3.841000000    -2.951000000
H    -1.573000000     4.433000000    -2.797000000
C     0.434000000     4.240000000    -2.230000000
C     0.237000000     5.427000000    -1.277000000
H    -0.643000000     5.973000000    -1.621000000
H     1.058000000     6.147000000    -1.288000000
C     0.086000000     4.991000000     0.159000000
C    -1.257000000     4.925000000     0.585000000
H    -2.039000000     5.051000000    -0.159000000
C     1.083000000     4.585000000     0.950000000
C     0.862000000     3.999000000     2.179000000
H     1.668000000     3.610000000     2.797000000
C    -0.465000000     3.923000000     2.635000000
O    -0.634000000     3.101000000     3.755000000
C    -1.039000000     1.730000000     3.545000000
C    -0.198000000     0.729000000     4.338000000
C    -0.715000000    -0.503000000     4.689000000
H    -1.739000000    -0.831000000     4.529000000
C     1.047000000     1.139000000     4.857000000
H     1.343000000     2.183000000     4.801000000
O    -2.451000000     1.626000000     3.828000000
H    -0.779000000     1.538000000     2.494000000
C    -1.566000000     4.330000000     1.803000000
C    -2.982000000     4.095000000     2.328000000
H    -3.692000000     4.871000000     2.037000000
H    -2.932000000     4.236000000     3.410000000
C    -3.492000000     2.702000000     1.913000000
C    -4.137000000     2.552000000     0.699000000
H    -4.251000000     3.440000000     0.083000000
C    -3.234000000     1.548000000     2.740000000
C    -3.636000000     0.311000000     2.227000000
H    -3.597000000    -0.576000000     2.854000000
C    -4.329000000     0.242000000     1.042000000
O    -4.748000000    -1.018000000     0.617000000
C    -3.998000000    -1.711000000    -0.388000000
C    -3.736000000    -3.187000000     0.052000000
C    -3.846000000    -3.599000000     1.370000000
H    -4.188000000    -2.898000000     2.126000000
C    -3.241000000    -4.109000000    -0.872000000
H    -3.148000000    -3.775000000    -1.902000000
O    -4.507000000    -1.655000000    -1.707000000
H    -2.988000000    -1.278000000    -0.351000000
C    -4.526000000     1.369000000     0.224000000
C    -5.237000000     1.242000000    -1.120000000
H    -5.720000000     2.178000000    -1.409000000
H    -6.066000000     0.540000000    -1.019000000
C    -4.317000000     0.760000000    -2.284000000
C    -4.117000000    -0.571000000    -2.582000000
C    -3.101000000    -0.949000000    -3.502000000
H    -2.844000000    -2.001000000    -3.596000000
C    -2.381000000     0.044000000    -4.159000000
O    -1.310000000    -0.418000000    -4.908000000
C     0.026000000    -0.279000000    -4.192000000
H    -0.080000000    -0.240000000    -3.098000000
C     0.808000000    -1.583000000    -4.350000000
C     2.153000000    -1.568000000    -4.077000000
H     2.728000000    -0.667000000    -3.882000000
C     0.178000000    -2.765000000    -4.620000000
H    -0.904000000    -2.804000000    -4.713000000
C     0.896000000    -3.906000000    -4.728000000
O     0.234000000    -5.072000000    -5.059000000
C     2.260000000    -3.932000000    -4.465000000
H     2.799000000    -4.875000000    -4.488000000
C     2.887000000    -2.754000000    -4.123000000
O     4.294000000    -2.842000000    -3.981000000
C     5.099000000    -1.700000000    -3.840000000
C     5.378000000    -1.251000000    -2.579000000
H     5.164000000    -1.816000000    -1.676000000
C     5.439000000    -0.933000000    -4.934000000
H     5.240000000    -1.400000000    -5.895000000
C     6.102000000     0.299000000    -4.824000000
H     6.377000000     0.841000000    -5.725000000
C     6.392000000     0.753000000    -3.537000000
H     6.911000000     1.684000000    -3.323000000
C     6.118000000    -0.051000000    -2.455000000
O     6.545000000     0.402000000    -1.208000000
C     5.872000000     1.240000000    -0.396000000
C     6.353000000     1.347000000     0.886000000
H     7.338000000     0.953000000     1.126000000
C     5.625000000     2.053000000     1.808000000
O     6.188000000     2.218000000     3.040000000
C     5.446000000     2.396000000     4.183000000
C     4.436000000     1.422000000     4.587000000
H     4.222000000     0.566000000     3.952000000
C     5.683000000     3.482000000     5.007000000
H     6.464000000     4.156000000     4.666000000
C     5.057000000     3.603000000     6.240000000
H     5.320000000     4.514000000     6.771000000
C     4.162000000     2.683000000     6.670000000
H     3.569000000     2.822000000     7.571000000
C     3.812000000     1.638000000     5.785000000
O     2.985000000     0.668000000     6.263000000
C     1.799000000     0.257000000     5.689000000
C     1.393000000    -1.007000000     5.926000000
H     1.994000000    -1.649000000     6.565000000
C     0.078000000    -1.348000000     5.504000000
O    -0.444000000    -2.618000000     5.922000000
C    -1.724000000    -3.075000000     5.537000000
C    -1.876000000    -3.981000000     4.429000000
H    -0.998000000    -4.205000000     3.829000000
C    -2.817000000    -2.706000000     6.289000000
H    -2.620000000    -2.051000000     7.135000000
C    -4.111000000    -3.037000000     5.830000000
H    -5.061000000    -2.706000000     6.242000000
C    -4.209000000    -3.977000000     4.812000000
H    -5.198000000    -4.284000000     4.482000000
C    -3.120000000    -4.376000000     4.066000000
O    -3.350000000    -5.253000000     3.081000000
C    -3.503000000    -4.909000000     1.725000000
C    -3.105000000    -5.796000000     0.777000000
H    -2.799000000    -6.781000000     1.120000000
C    -3.040000000    -5.416000000    -0.552000000
O    -2.439000000    -6.291000000    -1.422000000
C    -2.298000000    -5.993000000    -2.782000000
C    -3.491000000    -6.008000000    -3.473000000
H    -4.430000000    -6.335000000    -3.034000000
C    -3.463000000    -5.730000000    -4.867000000
H    -4.413000000    -5.813000000    -5.388000000
C    -2.224000000    -5.453000000    -5.502000000
H    -2.128000000    -5.191000000    -6.553000000
C    -1.080000000    -5.316000000    -4.664000000
C    -1.113000000    -5.691000000    -3.313000000
H    -0.192000000    -5.583000000    -2.746000000
C     0.623000000    -1.458000000     1.575000000
H     0.348000000    -2.142000000     2.374000000
C    -0.204000000    -0.554000000     0.999000000
H    -1.117000000    -0.392000000     1.566000000
C     0.063000000     0.237000000    -0.078000000
H    -0.690000000     0.942000000    -0.464000000
C     1.198000000    -0.009000000    -0.759000000
H     1.404000000     0.608000000    -1.631000000
C     2.135000000    -0.952000000    -0.270000000
H     3.095000000    -1.090000000    -0.761000000
C     1.835000000    -1.651000000     0.933000000
C     2.828000000    -2.563000000     1.514000000
O     3.712000000    -2.990000000     0.830000000
O     2.871000000    -2.805000000     2.734000000
O     5.798000000    -1.316000000     6.450000000
H     5.727000000    -1.924000000     7.186000000
H     5.201000000    -1.669000000     5.790000000
O     4.449000000    -6.423000000    -2.727000000
H     4.120000000    -5.676000000    -2.226000000
H     3.669000000    -6.941000000    -2.924000000
O     6.737000000    -4.052000000     5.995000000
H     6.273000000    -4.804000000     5.627000000
H     6.467000000    -3.313000000     5.449000000
O     8.245000000    -4.679000000     2.696000000
H     7.496000000    -5.024000000     3.181000000
H     8.386000000    -5.312000000     1.991000000
O     6.037000000    -5.732000000     3.799000000
H     5.589000000    -5.589000000     2.965000000
H     5.579000000    -6.475000000     4.192000000
O     2.674000000    -5.013000000    -0.866000000
H     2.014000000    -5.133000000    -0.183000000
H     3.334000000    -4.447000000    -0.466000000
O     2.893000000    -6.314000000     5.913000000
H     3.075000000    -7.079000000     5.368000000
H     2.116000000    -6.558000000     6.416000000
O     3.495000000    -3.707000000     6.366000000
H     3.914000000    -3.495000000     5.532000000
H     3.309000000    -4.645000000     6.309000000
O     0.121000000    -6.622000000     2.348000000
H     0.446000000    -5.763000000     2.619000000
H    -0.517000000    -6.860000000     3.021000000
O     6.416000000    -3.182000000     0.301000000
H     6.488000000    -4.134000000     0.229000000
H     5.483000000    -3.022000000     0.446000000
O     7.070000000    -5.962000000    -0.116000000
H     6.345000000    -6.542000000     0.117000000
H     7.841000000    -6.372000000     0.276000000
O     4.812000000    -7.703000000     0.256000000
H     4.521000000    -8.332000000     0.916000000
H     4.356000000    -6.892000000     0.479000000
O     8.812000000    -3.343000000    -1.740000000
H     8.431000000    -3.793000000    -2.493000000
H     8.135000000    -3.392000000    -1.064000000
O     1.502000000    -4.963000000     3.925000000
H     1.884000000    -5.371000000     4.702000000
H     1.872000000    -4.081000000     3.911000000
O     5.068000000    -2.864000000     4.068000000
H     4.204000000    -2.742000000     3.675000000
H     5.680000000    -2.546000000     3.405000000
O     1.891000000    -8.635000000     4.199000000
H     1.589000000    -9.086000000     4.987000000
H     1.455000000    -7.784000000     4.227000000
O     0.794000000    -8.821000000     1.101000000
H     1.677000000    -8.719000000     1.455000000
H     0.324000000    -8.042000000     1.399000000
O     3.818000000    -5.406000000     1.901000000
H     3.034000000    -5.680000000     2.376000000
H     3.701000000    -4.466000000     1.767000000
O     7.676000000    -1.883000000     2.475000000
H     7.970000000    -2.723000000     2.829000000
H     7.445000000    -2.074000000     1.565000000
