215
-1462.45473
C     4.619000000     1.889000000     2.006000000
H     4.319000000     2.569000000     2.799000000
C     4.381000000     2.120000000     0.646000000
C     5.032000000     1.306000000    -0.317000000
H     4.852000000     1.478000000    -1.375000000
C     3.289000000     3.100000000     0.220000000
O     2.950000000     4.010000000     1.222000000
H     2.447000000     2.410000000     0.060000000
O     3.571000000     3.618000000    -1.091000000
C     2.494000000     3.668000000    -1.944000000
C     2.509000000     2.775000000    -3.045000000
H     3.357000000     2.159000000    -3.332000000
C     1.360000000     2.600000000    -3.883000000
O     1.297000000     1.511000000    -4.780000000
C     0.223000000     3.405000000    -3.584000000
C    -0.996000000     3.252000000    -4.450000000
H    -1.488000000     4.223000000    -4.525000000
C    -1.959000000     2.202000000    -3.938000000
C    -2.968000000     2.540000000    -3.067000000
H    -3.236000000     3.575000000    -2.867000000
H    -0.789000000     2.951000000    -5.479000000
C     0.329000000     4.460000000    -2.612000000
H    -0.505000000     5.156000000    -2.594000000
C     1.380000000     4.530000000    -1.724000000
C     1.288000000     5.515000000    -0.574000000
H     0.551000000     6.287000000    -0.805000000
H     2.220000000     6.029000000    -0.328000000
C     0.720000000     4.883000000     0.642000000
C    -0.620000000     4.989000000     0.991000000
H    -1.283000000     5.595000000     0.379000000
C     1.586000000     4.173000000     1.441000000
C     1.159000000     3.480000000     2.599000000
H     1.911000000     2.837000000     3.050000000
C    -0.234000000     3.482000000     2.940000000
O    -0.585000000     2.607000000     4.000000000
C    -1.285000000     1.414000000     3.695000000
C    -0.848000000     0.200000000     4.466000000
C    -1.800000000    -0.809000000     4.887000000
H    -2.862000000    -0.667000000     4.704000000
C     0.470000000     0.007000000     4.802000000
H     1.252000000     0.674000000     4.450000000
O    -2.707000000     1.625000000     3.780000000
H    -0.980000000     1.116000000     2.680000000
C    -1.123000000     4.305000000     2.173000000
C    -2.616000000     4.303000000     2.435000000
H    -3.020000000     5.270000000     2.127000000
H    -2.835000000     4.237000000     3.503000000
C    -3.227000000     3.027000000     1.800000000
C    -3.739000000     3.142000000     0.497000000
H    -3.599000000     4.034000000    -0.109000000
C    -3.373000000     1.829000000     2.584000000
C    -4.022000000     0.788000000     1.987000000
H    -4.014000000    -0.189000000     2.464000000
C    -4.416000000     0.814000000     0.637000000
O    -4.987000000    -0.320000000     0.119000000
C    -4.213000000    -1.093000000    -0.837000000
C    -4.238000000    -2.590000000    -0.477000000
C    -4.551000000    -3.168000000     0.789000000
H    -4.838000000    -2.466000000     1.568000000
C    -3.742000000    -3.529000000    -1.367000000
H    -3.405000000    -3.122000000    -2.317000000
O    -4.451000000    -0.734000000    -2.217000000
H    -3.174000000    -0.778000000    -0.660000000
C    -4.369000000     2.040000000    -0.048000000
C    -4.905000000     2.077000000    -1.490000000
H    -5.199000000     3.095000000    -1.755000000
H    -5.758000000     1.419000000    -1.667000000
C    -3.884000000     1.581000000    -2.487000000
C    -3.733000000     0.279000000    -2.918000000
C    -2.770000000    -0.130000000    -3.844000000
H    -2.586000000    -1.181000000    -4.049000000
C    -1.823000000     0.796000000    -4.257000000
O    -0.793000000     0.320000000    -4.980000000
C     0.539000000     0.341000000    -4.281000000
H     0.393000000     0.390000000    -3.192000000
C     1.366000000    -0.932000000    -4.501000000
C     2.749000000    -0.867000000    -4.539000000
H     3.260000000     0.092000000    -4.558000000
C     0.654000000    -2.154000000    -4.342000000
H    -0.420000000    -2.183000000    -4.176000000
C     1.362000000    -3.312000000    -4.310000000
O     0.757000000    -4.544000000    -4.101000000
C     2.750000000    -3.317000000    -4.410000000
H     3.364000000    -4.213000000    -4.466000000
C     3.401000000    -2.113000000    -4.599000000
O     4.785000000    -2.176000000    -4.796000000
C     5.707000000    -1.340000000    -4.166000000
C     5.728000000    -1.290000000    -2.769000000
H     5.126000000    -1.978000000    -2.181000000
C     6.412000000    -0.326000000    -4.834000000
H     6.186000000    -0.167000000    -5.885000000
C     7.177000000     0.693000000    -4.265000000
H     7.762000000     1.384000000    -4.867000000
C     7.315000000     0.659000000    -2.907000000
H     7.978000000     1.377000000    -2.431000000
C     6.564000000    -0.315000000    -2.209000000
O     6.646000000    -0.310000000    -0.810000000
C     5.955000000     0.356000000     0.126000000
C     6.232000000     0.204000000     1.479000000
H     6.906000000    -0.582000000     1.811000000
C     5.564000000     0.968000000     2.390000000
O     5.939000000     0.823000000     3.674000000
C     4.970000000     0.685000000     4.670000000
C     4.039000000    -0.384000000     4.655000000
H     4.020000000    -1.105000000     3.841000000
C     5.051000000     1.477000000     5.854000000
H     5.863000000     2.198000000     5.809000000
C     4.212000000     1.260000000     6.892000000
H     4.250000000     1.899000000     7.770000000
C     3.228000000     0.244000000     6.824000000
H     2.535000000     0.078000000     7.644000000
C     3.120000000    -0.559000000     5.738000000
O     2.135000000    -1.542000000     5.639000000
C     0.825000000    -1.178000000     5.460000000
C    -0.096000000    -2.074000000     5.881000000
H     0.176000000    -3.070000000     6.220000000
C    -1.404000000    -1.898000000     5.589000000
O    -2.095000000    -3.095000000     5.571000000
C    -3.352000000    -3.305000000     4.981000000
C    -3.521000000    -4.003000000     3.801000000
H    -2.632000000    -4.372000000     3.296000000
C    -4.416000000    -3.023000000     5.804000000
H    -4.276000000    -2.586000000     6.789000000
C    -5.705000000    -3.397000000     5.404000000
H    -6.627000000    -3.184000000     5.939000000
C    -5.855000000    -4.088000000     4.176000000
H    -6.854000000    -4.381000000     3.862000000
C    -4.772000000    -4.373000000     3.400000000
O    -5.036000000    -5.049000000     2.213000000
C    -4.582000000    -4.538000000     0.975000000
C    -4.225000000    -5.430000000    -0.006000000
H    -4.068000000    -6.442000000     0.359000000
C    -3.808000000    -4.906000000    -1.161000000
O    -3.364000000    -5.832000000    -2.079000000
C    -2.657000000    -5.412000000    -3.208000000
C    -3.344000000    -4.991000000    -4.363000000
H    -4.428000000    -5.019000000    -4.448000000
C    -2.681000000    -4.630000000    -5.497000000
H    -3.206000000    -4.228000000    -6.360000000
C    -1.302000000    -4.511000000    -5.456000000
H    -0.769000000    -4.013000000    -6.262000000
C    -0.591000000    -4.720000000    -4.243000000
C    -1.270000000    -5.254000000    -3.086000000
H    -0.695000000    -5.470000000    -2.189000000
C     0.785000000    -1.496000000     1.693000000
H     0.332000000    -2.112000000     2.466000000
C     0.043000000    -0.635000000     0.904000000
H    -0.995000000    -0.416000000     1.142000000
C     0.616000000     0.050000000    -0.128000000
H    -0.040000000     0.721000000    -0.672000000
C     1.952000000    -0.151000000    -0.551000000
H     2.462000000     0.407000000    -1.333000000
C     2.707000000    -1.019000000     0.227000000
H     3.747000000    -1.263000000     0.029000000
C     2.154000000    -1.710000000     1.342000000
C     2.971000000    -2.701000000     2.074000000
O     4.179000000    -2.764000000     1.927000000
O     2.465000000    -3.612000000     2.732000000
O     7.225000000    -1.418000000     6.518000000
H     7.420000000    -1.262000000     5.593000000
H     6.506000000    -2.049000000     6.507000000
O     4.789000000    -2.793000000     7.464000000
H     4.399000000    -3.052000000     6.630000000
H     4.073000000    -2.862000000     8.096000000
O     6.086000000    -7.064000000     0.043000000
H     5.518000000    -6.464000000     0.527000000
H     5.615000000    -7.898000000     0.051000000
O     8.599000000    -0.953000000     3.992000000
H     9.512000000    -0.671000000     3.951000000
H     8.644000000    -1.909000000     4.016000000
O     3.682000000    -4.161000000    -1.772000000
H     3.059000000    -4.884000000    -1.697000000
H     4.382000000    -4.383000000    -1.158000000
O     8.360000000    -2.523000000     0.155000000
H     7.491000000    -2.905000000     0.032000000
H     8.304000000    -1.662000000    -0.261000000
O     4.971000000    -6.611000000     6.391000000
H     4.607000000    -5.848000000     5.943000000
H     5.045000000    -6.340000000     7.306000000
O     2.201000000    -6.103000000     7.068000000
H     2.831000000    -5.545000000     6.612000000
H     2.572000000    -6.220000000     7.942000000
O    -1.374000000    -6.689000000     3.860000000
H    -0.972000000    -6.055000000     3.266000000
H    -1.039000000    -6.453000000     4.725000000
O     5.893000000    -4.107000000     0.062000000
H     6.201000000    -4.955000000     0.381000000
H     5.350000000    -3.767000000     0.773000000
O     5.798000000    -4.928000000    -3.325000000
H     5.108000000    -4.491000000    -2.825000000
H     5.710000000    -4.577000000    -4.211000000
O     0.081000000    -4.268000000     3.579000000
H    -0.312000000    -3.654000000     4.199000000
H     0.994000000    -3.989000000     3.512000000
O     3.690000000    -4.401000000     5.169000000
H     3.166000000    -3.964000000     4.497000000
H     4.539000000    -4.547000000     4.754000000
O     2.085000000    -7.178000000     2.493000000
H     1.908000000    -7.820000000     3.181000000
H     1.332000000    -6.588000000     2.516000000
O     0.230000000    -4.959000000     0.607000000
H     0.349000000    -4.542000000     1.460000000
H     0.150000000    -4.230000000    -0.008000000
O     4.197000000    -5.804000000     1.509000000
H     3.332000000    -6.209000000     1.450000000
H     4.025000000    -4.912000000     1.810000000
O     1.777000000    -6.600000000    -1.215000000
H     1.496000000    -6.131000000    -0.429000000
H     1.586000000    -7.519000000    -1.027000000
O     6.036000000    -3.725000000     3.564000000
H     5.473000000    -3.176000000     3.019000000
H     6.926000000    -3.498000000     3.294000000
O     4.844000000    -8.459000000     3.098000000
H     4.290000000    -7.679000000     3.119000000
H     5.693000000    -8.159000000     3.421000000
