215
-1463.87049
C     4.687000000     0.268000000     0.339000000
H     4.346000000     0.993000000     1.074000000
C     4.486000000     0.521000000    -0.991000000
C     4.907000000    -0.444000000    -1.942000000
H     4.821000000    -0.341000000    -3.021000000
C     3.581000000     1.691000000    -1.509000000
O     3.808000000     2.940000000    -0.772000000
H     2.580000000     1.301000000    -1.275000000
O     3.656000000     1.963000000    -2.896000000
C     2.384000000     2.119000000    -3.516000000
C     1.911000000     1.053000000    -4.216000000
H     2.510000000     0.167000000    -4.410000000
C     0.558000000     1.115000000    -4.693000000
O     0.041000000    -0.093000000    -5.137000000
C    -0.276000000     2.240000000    -4.569000000
C    -1.695000000     2.254000000    -4.940000000
H    -1.996000000     3.298000000    -5.055000000
C    -2.484000000     1.699000000    -3.798000000
C    -2.966000000     2.534000000    -2.826000000
H    -2.783000000     3.605000000    -2.876000000
H    -1.937000000     1.698000000    -5.848000000
C     0.223000000     3.306000000    -3.794000000
H    -0.331000000     4.225000000    -3.619000000
C     1.521000000     3.252000000    -3.349000000
C     2.047000000     4.477000000    -2.579000000
H     1.515000000     5.373000000    -2.905000000
H     3.127000000     4.598000000    -2.691000000
C     1.746000000     4.340000000    -1.067000000
C     0.766000000     5.086000000    -0.415000000
H    -0.040000000     5.583000000    -0.949000000
C     2.716000000     3.690000000    -0.301000000
C     2.454000000     3.507000000     1.058000000
H     3.113000000     2.861000000     1.634000000
C     1.434000000     4.079000000     1.728000000
O     1.297000000     3.754000000     3.080000000
C     0.211000000     2.878000000     3.386000000
C     0.528000000     2.032000000     4.598000000
C    -0.445000000     1.244000000     5.300000000
H    -1.485000000     1.369000000     5.011000000
C     1.890000000     1.874000000     4.960000000
H     2.625000000     2.454000000     4.409000000
O    -0.994000000     3.591000000     3.637000000
H     0.061000000     2.166000000     2.561000000
C     0.507000000     4.915000000     0.997000000
C    -0.751000000     5.516000000     1.605000000
H    -0.990000000     6.395000000     1.003000000
H    -0.550000000     5.840000000     2.628000000
C    -1.904000000     4.552000000     1.643000000
C    -2.737000000     4.399000000     0.509000000
H    -2.779000000     5.118000000    -0.306000000
C    -1.888000000     3.563000000     2.610000000
C    -2.759000000     2.470000000     2.528000000
H    -2.728000000     1.681000000     3.275000000
C    -3.637000000     2.351000000     1.450000000
O    -4.475000000     1.228000000     1.432000000
C    -4.049000000     0.134000000     0.551000000
C    -4.244000000    -1.163000000     1.219000000
C    -4.385000000    -1.243000000     2.607000000
H    -4.241000000    -0.361000000     3.226000000
C    -4.288000000    -2.400000000     0.465000000
H    -4.232000000    -2.379000000    -0.621000000
O    -4.727000000     0.178000000    -0.751000000
H    -2.964000000     0.106000000     0.375000000
C    -3.661000000     3.310000000     0.438000000
C    -4.469000000     3.034000000    -0.804000000
H    -4.713000000     3.985000000    -1.282000000
H    -5.517000000     2.824000000    -0.580000000
C    -3.793000000     2.088000000    -1.769000000
C    -4.021000000     0.707000000    -1.743000000
C    -3.445000000    -0.148000000    -2.650000000
H    -3.643000000    -1.217000000    -2.632000000
C    -2.722000000     0.346000000    -3.676000000
O    -2.093000000    -0.635000000    -4.382000000
C    -0.684000000    -0.805000000    -4.231000000
H    -0.454000000    -0.298000000    -3.282000000
C    -0.355000000    -2.342000000    -4.123000000
C     0.974000000    -2.700000000    -4.517000000
H     1.674000000    -1.968000000    -4.910000000
C    -1.263000000    -3.291000000    -3.593000000
H    -2.208000000    -2.935000000    -3.191000000
C    -0.822000000    -4.599000000    -3.601000000
O    -1.635000000    -5.599000000    -3.183000000
C     0.469000000    -4.970000000    -3.942000000
H     0.796000000    -6.007000000    -3.945000000
C     1.387000000    -4.031000000    -4.430000000
O     2.542000000    -4.439000000    -4.963000000
C     3.715000000    -3.713000000    -4.936000000
C     4.212000000    -3.271000000    -3.704000000
H     3.647000000    -3.432000000    -2.790000000
C     4.441000000    -3.517000000    -6.107000000
H     4.001000000    -3.888000000    -7.030000000
C     5.666000000    -2.866000000    -6.051000000
H     6.308000000    -2.770000000    -6.923000000
C     6.178000000    -2.466000000    -4.839000000
H     7.154000000    -1.995000000    -4.758000000
C     5.472000000    -2.712000000    -3.649000000
O     6.065000000    -2.508000000    -2.386000000
C     5.630000000    -1.583000000    -1.475000000
C     5.890000000    -1.763000000    -0.131000000
H     6.404000000    -2.649000000     0.232000000
C     5.291000000    -0.919000000     0.756000000
O     5.429000000    -1.212000000     2.077000000
C     5.459000000    -0.295000000     3.138000000
C     4.519000000    -0.188000000     4.094000000
H     3.655000000    -0.842000000     4.020000000
C     6.625000000     0.447000000     3.273000000
H     7.412000000     0.309000000     2.536000000
C     6.744000000     1.352000000     4.311000000
H     7.603000000     2.015000000     4.371000000
C     5.769000000     1.481000000     5.271000000
H     5.874000000     2.065000000     6.182000000
C     4.598000000     0.747000000     5.079000000
O     3.624000000     0.669000000     6.078000000
C     2.293000000     0.870000000     5.777000000
C     1.321000000     0.127000000     6.509000000
H     1.646000000    -0.499000000     7.336000000
C    -0.008000000     0.276000000     6.225000000
O    -0.941000000    -0.675000000     6.631000000
C    -2.322000000    -0.772000000     6.451000000
C    -2.920000000    -1.529000000     5.496000000
H    -2.260000000    -1.970000000     4.753000000
C    -3.065000000     0.017000000     7.354000000
H    -2.540000000     0.662000000     8.055000000
C    -4.464000000    -0.070000000     7.313000000
H    -5.052000000     0.443000000     8.069000000
C    -5.070000000    -0.981000000     6.447000000
H    -6.150000000    -1.073000000     6.363000000
C    -4.301000000    -1.666000000     5.507000000
O    -4.912000000    -2.477000000     4.628000000
C    -4.708000000    -2.415000000     3.279000000
C    -4.777000000    -3.522000000     2.568000000
H    -4.993000000    -4.453000000     3.087000000
C    -4.446000000    -3.579000000     1.218000000
O    -4.598000000    -4.820000000     0.593000000
C    -4.412000000    -5.153000000    -0.727000000
C    -5.470000000    -5.489000000    -1.590000000
H    -6.450000000    -5.638000000    -1.145000000
C    -5.260000000    -5.875000000    -2.926000000
H    -6.112000000    -6.086000000    -3.568000000
C    -3.978000000    -5.915000000    -3.482000000
H    -3.849000000    -6.278000000    -4.498000000
C    -2.886000000    -5.489000000    -2.668000000
C    -3.100000000    -5.142000000    -1.286000000
H    -2.225000000    -4.881000000    -0.696000000
C     0.794000000    -1.363000000     2.217000000
H     0.692000000    -1.420000000     3.297000000
C     0.144000000    -0.356000000     1.525000000
H    -0.392000000     0.381000000     2.117000000
C     0.350000000    -0.121000000     0.167000000
H    -0.066000000     0.687000000    -0.354000000
C     1.219000000    -0.966000000    -0.525000000
H     1.389000000    -0.888000000    -1.596000000
C     1.816000000    -2.104000000     0.228000000
H     2.434000000    -2.853000000    -0.262000000
C     1.714000000    -2.164000000     1.560000000
C     2.429000000    -3.274000000     2.388000000
O     3.076000000    -4.179000000     1.824000000
O     2.485000000    -3.246000000     3.602000000
O     3.405000000    -8.672000000     0.203000000
H     2.777000000    -8.709000000    -0.518000000
H     2.866000000    -8.550000000     0.984000000
O    -0.417000000    -3.924000000     6.612000000
H     0.370000000    -3.500000000     6.953000000
H    -1.123000000    -3.607000000     7.175000000
O     9.123000000    -3.445000000     0.848000000
H     9.523000000    -2.767000000     1.393000000
H     8.321000000    -3.683000000     1.313000000
O     3.851000000    -5.250000000     6.365000000
H     3.064000000    -5.612000000     5.959000000
H     3.892000000    -5.669000000     7.225000000
O     1.685000000    -7.251000000    -1.671000000
H     0.827000000    -7.329000000    -2.088000000
H     1.536000000    -6.670000000    -0.925000000
O     1.538000000    -5.672000000     4.253000000
H     1.704000000    -4.737000000     4.127000000
H     0.609000000    -5.780000000     4.049000000
O     6.876000000    -4.161000000     2.226000000
H     6.104000000    -3.615000000     2.076000000
H     6.681000000    -4.634000000     3.035000000
O     4.192000000    -1.470000000     8.294000000
H     4.155000000    -1.470000000     7.338000000
H     3.873000000    -2.336000000     8.547000000
O     4.104000000    -5.450000000    -0.376000000
H     3.671000000    -4.998000000     0.348000000
H     3.482000000    -6.128000000    -0.641000000
O     1.767000000    -8.363000000     2.574000000
H     1.740000000    -7.406000000     2.586000000
H     1.609000000    -8.618000000     3.483000000
O     2.399000000    -2.996000000     6.373000000
H     2.291000000    -3.102000000     5.428000000
H     2.887000000    -3.773000000     6.647000000
O     4.195000000    -6.047000000     3.152000000
H     3.992000000    -5.407000000     2.470000000
H     3.409000000    -6.072000000     3.698000000
O     8.232000000    -2.382000000     4.740000000
H     7.727000000    -2.547000000     3.944000000
H     7.572000000    -2.187000000     5.406000000
O     5.706000000    -7.763000000     1.881000000
H     5.227000000    -7.090000000     2.365000000
H     5.105000000    -8.032000000     1.186000000
O    -1.608000000    -5.860000000     5.072000000
H    -1.016000000    -6.434000000     5.557000000
H    -1.344000000    -4.975000000     5.325000000
O     6.817000000    -5.784000000    -0.148000000
H     6.450000000    -5.539000000     0.701000000
H     6.376000000    -5.209000000    -0.774000000
O    -0.592000000    -5.924000000     2.432000000
H    -1.281000000    -6.430000000     2.001000000
H    -1.061000000    -5.343000000     3.031000000
O     5.218000000    -3.732000000     4.480000000
H     4.381000000    -3.459000000     4.103000000
H     4.997000000    -4.477000000     5.039000000
O     1.434000000    -5.939000000     0.668000000
H     1.929000000    -5.203000000     1.030000000
H     0.719000000    -6.075000000     1.289000000
