215
-1461.40283
C     4.746000000     2.588000000     1.031000000
H     4.121000000     3.125000000     1.740000000
C     4.409000000     2.505000000    -0.354000000
C     5.006000000     1.526000000    -1.130000000
H     4.706000000     1.406000000    -2.169000000
C     3.128000000     3.113000000    -0.930000000
O     2.833000000     4.253000000    -0.143000000
H     2.365000000     2.340000000    -0.756000000
O     3.210000000     3.442000000    -2.311000000
C     2.173000000     3.153000000    -3.118000000
C     2.148000000     1.893000000    -3.746000000
H     3.020000000     1.248000000    -3.817000000
C     1.034000000     1.560000000    -4.470000000
O     1.029000000     0.259000000    -4.842000000
C    -0.130000000     2.341000000    -4.370000000
C    -1.496000000     1.945000000    -4.985000000
H    -2.000000000     2.866000000    -5.287000000
C    -2.301000000     0.994000000    -4.101000000
C    -3.367000000     1.582000000    -3.373000000
H    -3.609000000     2.641000000    -3.408000000
H    -1.300000000     1.542000000    -5.981000000
C    -0.055000000     3.564000000    -3.682000000
H    -1.017000000     4.054000000    -3.556000000
C     1.102000000     3.996000000    -3.086000000
C     0.978000000     5.200000000    -2.165000000
H     0.286000000     5.935000000    -2.583000000
H     1.950000000     5.696000000    -2.137000000
C     0.588000000     4.782000000    -0.769000000
C    -0.731000000     4.828000000    -0.360000000
H    -1.429000000     5.108000000    -1.144000000
C     1.565000000     4.495000000     0.156000000
C     1.170000000     4.028000000     1.440000000
H     1.894000000     3.570000000     2.108000000
C    -0.174000000     3.937000000     1.749000000
O    -0.426000000     3.274000000     2.946000000
C    -1.149000000     2.056000000     2.952000000
C    -0.578000000     1.058000000     3.942000000
C    -1.468000000     0.290000000     4.734000000
H    -2.547000000     0.406000000     4.782000000
C     0.813000000     0.848000000     4.044000000
H     1.477000000     1.526000000     3.514000000
O    -2.539000000     2.379000000     3.180000000
H    -0.943000000     1.684000000     1.938000000
C    -1.216000000     4.470000000     0.936000000
C    -2.626000000     4.553000000     1.358000000
H    -3.032000000     5.427000000     0.844000000
H    -2.561000000     4.879000000     2.398000000
C    -3.389000000     3.256000000     1.170000000
C    -3.976000000     2.968000000    -0.069000000
H    -3.946000000     3.660000000    -0.907000000
C    -3.401000000     2.292000000     2.135000000
C    -4.002000000     1.042000000     1.903000000
H    -4.088000000     0.304000000     2.697000000
C    -4.630000000     0.775000000     0.700000000
O    -5.150000000    -0.461000000     0.470000000
C    -4.245000000    -1.372000000    -0.177000000
C    -4.281000000    -2.698000000     0.495000000
C    -4.518000000    -2.708000000     1.859000000
H    -4.813000000    -1.826000000     2.421000000
C    -3.952000000    -3.876000000    -0.161000000
H    -3.824000000    -3.990000000    -1.234000000
O    -4.633000000    -1.428000000    -1.606000000
H    -3.204000000    -1.031000000    -0.074000000
C    -4.550000000     1.718000000    -0.315000000
C    -5.170000000     1.450000000    -1.632000000
H    -5.463000000     2.356000000    -2.167000000
H    -6.061000000     0.821000000    -1.558000000
C    -4.139000000     0.776000000    -2.512000000
C    -3.986000000    -0.613000000    -2.488000000
C    -2.923000000    -1.177000000    -3.246000000
H    -2.771000000    -2.253000000    -3.254000000
C    -2.060000000    -0.369000000    -4.005000000
O    -0.979000000    -0.906000000    -4.669000000
C     0.344000000    -0.661000000    -4.033000000
H     0.179000000    -0.135000000    -3.081000000
C     1.161000000    -1.859000000    -3.755000000
C     2.523000000    -2.007000000    -4.106000000
H     2.903000000    -1.367000000    -4.897000000
C     0.627000000    -2.850000000    -2.913000000
H    -0.430000000    -2.784000000    -2.664000000
C     1.395000000    -3.947000000    -2.504000000
O     0.849000000    -4.814000000    -1.684000000
C     2.728000000    -4.102000000    -2.868000000
H     3.339000000    -4.951000000    -2.570000000
C     3.283000000    -3.121000000    -3.665000000
O     4.573000000    -3.132000000    -4.133000000
C     5.399000000    -2.016000000    -4.010000000
C     5.713000000    -1.574000000    -2.761000000
H     5.305000000    -2.141000000    -1.928000000
C     5.835000000    -1.377000000    -5.178000000
H     5.492000000    -1.689000000    -6.161000000
C     6.689000000    -0.265000000    -5.079000000
H     7.106000000     0.215000000    -5.961000000
C     7.027000000     0.246000000    -3.818000000
H     7.619000000     1.149000000    -3.696000000
C     6.503000000    -0.384000000    -2.672000000
O     6.887000000     0.070000000    -1.428000000
C     6.167000000     0.902000000    -0.670000000
C     6.645000000     1.184000000     0.632000000
H     7.554000000     0.737000000     1.028000000
C     5.851000000     1.885000000     1.492000000
O     6.259000000     1.953000000     2.798000000
C     5.339000000     1.793000000     3.799000000
C     4.464000000     0.695000000     3.860000000
H     4.425000000    -0.074000000     3.093000000
C     5.245000000     2.816000000     4.773000000
H     5.983000000     3.614000000     4.788000000
C     4.386000000     2.647000000     5.831000000
H     4.259000000     3.394000000     6.611000000
C     3.497000000     1.651000000     5.874000000
H     2.723000000     1.616000000     6.636000000
C     3.574000000     0.646000000     4.925000000
O     2.680000000    -0.396000000     4.999000000
C     1.305000000    -0.181000000     4.827000000
C     0.407000000    -0.845000000     5.638000000
H     0.795000000    -1.616000000     6.297000000
C    -0.976000000    -0.663000000     5.572000000
O    -1.799000000    -1.346000000     6.396000000
C    -3.149000000    -1.615000000     6.124000000
C    -3.347000000    -2.658000000     5.175000000
H    -2.502000000    -3.190000000     4.744000000
C    -4.241000000    -0.868000000     6.563000000
H    -4.206000000    -0.024000000     7.247000000
C    -5.574000000    -1.215000000     6.127000000
H    -6.504000000    -0.784000000     6.489000000
C    -5.727000000    -2.278000000     5.271000000
H    -6.715000000    -2.527000000     4.892000000
C    -4.643000000    -2.927000000     4.754000000
O    -4.809000000    -3.957000000     3.833000000
C    -4.487000000    -3.938000000     2.511000000
C    -4.121000000    -5.083000000     1.877000000
H    -4.130000000    -6.015000000     2.435000000
C    -3.927000000    -5.061000000     0.555000000
O    -3.423000000    -6.242000000    -0.044000000
C    -2.441000000    -6.220000000    -1.064000000
C    -2.597000000    -6.971000000    -2.273000000
H    -3.576000000    -7.418000000    -2.427000000
C    -1.606000000    -7.058000000    -3.298000000
H    -1.744000000    -7.691000000    -4.171000000
C    -0.502000000    -6.272000000    -3.024000000
H     0.314000000    -6.298000000    -3.743000000
C    -0.351000000    -5.475000000    -1.891000000
C    -1.349000000    -5.396000000    -0.967000000
H    -1.309000000    -4.787000000    -0.067000000
C     0.259000000    -1.671000000     1.767000000
H    -0.128000000    -2.194000000     2.638000000
C    -0.386000000    -0.626000000     1.152000000
H    -1.426000000    -0.419000000     1.391000000
C     0.123000000     0.009000000    -0.001000000
H    -0.507000000     0.736000000    -0.571000000
C     1.442000000    -0.262000000    -0.395000000
H     1.927000000     0.309000000    -1.183000000
C     2.134000000    -1.352000000     0.139000000
H     3.153000000    -1.444000000    -0.229000000
C     1.596000000    -1.995000000     1.252000000
C     2.452000000    -3.151000000     1.880000000
O     3.585000000    -3.437000000     1.502000000
O     1.973000000    -3.720000000     2.848000000
O     6.041000000    -2.402000000     7.265000000
H     5.390000000    -2.472000000     6.567000000
H     6.004000000    -3.246000000     7.713000000
O     2.393000000    -5.301000000     7.235000000
H     2.832000000    -5.847000000     7.888000000
H     2.912000000    -5.416000000     6.439000000
O     3.940000000    -5.941000000     0.215000000
H     3.473000000    -6.439000000     0.886000000
H     4.012000000    -5.059000000     0.578000000
O     6.305000000    -4.938000000     4.164000000
H     5.650000000    -4.451000000     3.664000000
H     7.096000000    -4.897000000     3.626000000
O     0.961000000    -8.633000000    -0.390000000
H     1.780000000    -8.890000000     0.033000000
H     0.522000000    -8.078000000     0.254000000
O    -1.230000000    -4.975000000     2.820000000
H    -0.780000000    -4.290000000     3.314000000
H    -0.542000000    -5.381000000     2.292000000
O     0.676000000    -3.954000000     5.284000000
H     1.093000000    -4.068000000     4.430000000
H     1.070000000    -4.631000000     5.835000000
O    -2.183000000    -7.397000000     3.907000000
H    -1.835000000    -6.831000000     3.218000000
H    -2.282000000    -6.819000000     4.663000000
O     5.927000000    -1.990000000     1.611000000
H     6.422000000    -2.034000000     0.793000000
H     5.042000000    -2.264000000     1.370000000
O     8.382000000    -4.108000000     2.305000000
H     9.158000000    -4.119000000     1.744000000
H     8.045000000    -3.215000000     2.231000000
O     3.614000000    -7.469000000     2.934000000
H     2.674000000    -7.360000000     2.790000000
H     3.781000000    -8.390000000     2.735000000
O     6.932000000    -6.491000000    -0.036000000
H     6.111000000    -6.736000000     0.390000000
H     7.497000000    -6.201000000     0.681000000
O    -1.808000000    -5.713000000     5.877000000
H    -1.636000000    -5.665000000     6.817000000
H    -1.424000000    -4.911000000     5.522000000
O     3.958000000    -2.836000000     5.625000000
H     3.822000000    -3.756000000     5.397000000
H     3.364000000    -2.356000000     5.047000000
O     0.824000000    -7.984000000     3.260000000
H     0.329000000    -8.759000000     2.999000000
H     0.255000000    -7.535000000     3.886000000
O     0.937000000    -5.587000000     1.344000000
H     1.505000000    -5.675000000     0.579000000
H     1.413000000    -4.999000000     1.930000000
O     3.169000000    -5.258000000     4.482000000
H     3.552000000    -6.006000000     4.023000000
H     2.695000000    -4.778000000     3.803000000
O     6.737000000    -1.330000000     4.372000000
H     6.064000000    -1.306000000     5.052000000
H     6.251000000    -1.465000000     3.559000000
O     4.823000000    -7.017000000    -2.442000000
H     4.471000000    -7.029000000    -1.552000000
H     5.764000000    -7.150000000    -2.329000000
