215
-1470.48212
C     4.609000000     2.003000000     0.803000000
H     4.048000000     2.602000000     1.515000000
C     4.459000000     2.095000000    -0.581000000
C     5.252000000     1.263000000    -1.329000000
H     5.196000000     1.375000000    -2.409000000
C     3.173000000     2.817000000    -0.992000000
O     2.976000000     3.995000000    -0.223000000
H     2.326000000     2.118000000    -0.930000000
O     3.296000000     3.296000000    -2.385000000
C     2.232000000     3.029000000    -3.109000000
C     2.162000000     1.791000000    -3.687000000
H     2.961000000     1.054000000    -3.665000000
C     1.056000000     1.400000000    -4.378000000
O     1.028000000     0.119000000    -4.793000000
C    -0.039000000     2.276000000    -4.498000000
C    -1.339000000     1.823000000    -5.205000000
H    -1.908000000     2.687000000    -5.554000000
C    -2.189000000     1.029000000    -4.282000000
C    -3.206000000     1.697000000    -3.558000000
H    -3.271000000     2.756000000    -3.792000000
H    -1.078000000     1.419000000    -6.185000000
C    -0.008000000     3.537000000    -3.870000000
H    -0.791000000     4.286000000    -3.948000000
C     1.087000000     3.851000000    -3.115000000
C     1.138000000     5.178000000    -2.362000000
H     0.563000000     5.977000000    -2.835000000
H     2.172000000     5.529000000    -2.353000000
C     0.713000000     4.935000000    -0.858000000
C    -0.611000000     5.221000000    -0.489000000
H    -1.341000000     5.626000000    -1.185000000
C     1.628000000     4.387000000     0.056000000
C     1.196000000     4.037000000     1.360000000
H     1.798000000     3.560000000     2.128000000
C    -0.100000000     4.307000000     1.726000000
O    -0.462000000     3.965000000     3.021000000
C    -1.194000000     2.760000000     3.133000000
C    -0.822000000     1.858000000     4.325000000
C    -1.779000000     1.101000000     4.999000000
H    -2.826000000     1.381000000     4.924000000
C     0.580000000     1.590000000     4.577000000
H     1.312000000     2.172000000     4.023000000
O    -2.645000000     3.028000000     3.228000000
H    -1.140000000     2.280000000     2.144000000
C    -1.010000000     4.832000000     0.831000000
C    -2.495000000     5.030000000     1.181000000
H    -2.928000000     5.845000000     0.597000000
H    -2.634000000     5.340000000     2.218000000
C    -3.234000000     3.720000000     0.985000000
C    -3.863000000     3.425000000    -0.205000000
H    -3.977000000     4.110000000    -1.041000000
C    -3.342000000     2.837000000     2.046000000
C    -3.934000000     1.623000000     1.884000000
H    -4.069000000     1.017000000     2.777000000
C    -4.354000000     1.249000000     0.639000000
O    -4.908000000    -0.017000000     0.548000000
C    -4.139000000    -1.055000000    -0.158000000
C    -4.251000000    -2.401000000     0.549000000
C    -4.245000000    -2.449000000     1.919000000
H    -4.266000000    -1.549000000     2.527000000
C    -4.294000000    -3.602000000    -0.209000000
H    -4.220000000    -3.590000000    -1.293000000
O    -4.529000000    -1.046000000    -1.525000000
H    -3.061000000    -0.841000000    -0.193000000
C    -4.386000000     2.106000000    -0.454000000
C    -4.980000000     1.828000000    -1.842000000
H    -5.107000000     2.785000000    -2.354000000
H    -5.865000000     1.194000000    -1.759000000
C    -3.987000000     1.038000000    -2.647000000
C    -3.865000000    -0.339000000    -2.494000000
C    -2.879000000    -1.066000000    -3.214000000
H    -2.712000000    -2.118000000    -2.995000000
C    -2.047000000    -0.348000000    -4.056000000
O    -0.997000000    -1.139000000    -4.586000000
C     0.264000000    -0.852000000    -4.006000000
H     0.076000000    -0.414000000    -3.015000000
C     1.038000000    -2.156000000    -3.738000000
C     2.374000000    -2.330000000    -3.997000000
H     2.948000000    -1.638000000    -4.607000000
C     0.383000000    -3.179000000    -3.049000000
H    -0.686000000    -3.197000000    -2.852000000
C     1.088000000    -4.321000000    -2.623000000
O     0.460000000    -5.206000000    -1.811000000
C     2.449000000    -4.448000000    -2.866000000
H     3.045000000    -5.280000000    -2.500000000
C     3.054000000    -3.447000000    -3.562000000
O     4.419000000    -3.646000000    -3.832000000
C     5.369000000    -2.662000000    -3.841000000
C     5.747000000    -1.969000000    -2.694000000
H     5.239000000    -2.354000000    -1.814000000
C     5.941000000    -2.415000000    -5.086000000
H     5.624000000    -2.854000000    -6.028000000
C     6.767000000    -1.329000000    -5.178000000
H     7.211000000    -1.052000000    -6.130000000
C     7.147000000    -0.633000000    -4.037000000
H     7.831000000     0.177000000    -4.280000000
C     6.684000000    -0.916000000    -2.758000000
O     7.134000000    -0.218000000    -1.663000000
C     6.311000000     0.498000000    -0.833000000
C     6.588000000     0.678000000     0.564000000
H     7.387000000     0.168000000     1.095000000
C     5.693000000     1.307000000     1.404000000
O     5.985000000     1.434000000     2.754000000
C     5.123000000     1.694000000     3.777000000
C     4.058000000     0.834000000     4.033000000
H     3.728000000     0.183000000     3.228000000
C     5.583000000     2.557000000     4.790000000
H     6.470000000     3.162000000     4.620000000
C     4.902000000     2.580000000     5.986000000
H     5.309000000     3.168000000     6.805000000
C     3.819000000     1.699000000     6.152000000
H     3.230000000     1.589000000     7.059000000
C     3.345000000     0.900000000     5.197000000
O     2.288000000     0.081000000     5.442000000
C     0.972000000     0.514000000     5.402000000
C    -0.028000000    -0.293000000     5.901000000
H     0.198000000    -1.182000000     6.485000000
C    -1.337000000     0.162000000     5.921000000
O    -2.224000000    -0.523000000     6.732000000
C    -3.240000000    -1.375000000     6.351000000
C    -3.011000000    -2.235000000     5.277000000
H    -2.059000000    -2.119000000     4.766000000
C    -4.321000000    -1.419000000     7.167000000
H    -4.497000000    -0.891000000     8.102000000
C    -5.303000000    -2.323000000     6.774000000
H    -6.211000000    -2.448000000     7.358000000
C    -5.097000000    -3.204000000     5.699000000
H    -5.841000000    -3.987000000     5.578000000
C    -3.952000000    -3.169000000     4.929000000
O    -3.750000000    -3.958000000     3.822000000
C    -4.050000000    -3.721000000     2.516000000
C    -4.067000000    -4.888000000     1.757000000
H    -3.761000000    -5.812000000     2.241000000
C    -4.160000000    -4.836000000     0.381000000
O    -4.076000000    -5.998000000    -0.379000000
C    -3.069000000    -6.074000000    -1.340000000
C    -3.361000000    -6.563000000    -2.624000000
H    -4.422000000    -6.760000000    -2.752000000
C    -2.403000000    -6.633000000    -3.610000000
H    -2.623000000    -7.034000000    -4.596000000
C    -1.047000000    -6.266000000    -3.376000000
H    -0.279000000    -6.204000000    -4.143000000
C    -0.806000000    -5.757000000    -2.116000000
C    -1.766000000    -5.621000000    -1.193000000
H    -1.449000000    -5.204000000    -0.240000000
C    -0.106000000    -2.165000000     1.730000000
H    -0.551000000    -2.608000000     2.617000000
C    -0.477000000    -0.864000000     1.272000000
H    -1.281000000    -0.439000000     1.867000000
C     0.120000000    -0.285000000     0.191000000
H    -0.311000000     0.640000000    -0.082000000
C     1.262000000    -0.878000000    -0.415000000
H     1.924000000    -0.355000000    -1.100000000
C     1.637000000    -2.155000000     0.047000000
H     2.500000000    -2.642000000    -0.399000000
C     0.957000000    -2.760000000     1.090000000
C     1.395000000    -4.115000000     1.689000000
O     2.459000000    -4.582000000     1.228000000
O     0.683000000    -4.845000000     2.347000000
O     2.799000000    -7.087000000     6.263000000
H     3.367000000    -6.981000000     7.026000000
H     2.092000000    -7.656000000     6.568000000
O     1.602000000    -4.614000000     6.280000000
H     2.031000000    -5.358000000     6.703000000
H     2.266000000    -4.258000000     5.690000000
O     3.407000000    -7.024000000     1.227000000
H     3.583000000    -7.322000000     2.119000000
H     3.020000000    -6.155000000     1.337000000
O     5.038000000    -8.129000000     3.342000000
H     5.819000000    -8.675000000     3.249000000
H     4.355000000    -8.735000000     3.627000000
O     6.208000000    -5.733000000     4.395000000
H     5.757000000    -6.531000000     4.119000000
H     6.811000000    -5.538000000     3.677000000
O    -2.437000000    -8.248000000     1.402000000
H    -1.684000000    -7.851000000     0.962000000
H    -2.248000000    -8.149000000     2.335000000
O    -1.212000000    -7.663000000     3.974000000
H    -1.002000000    -6.956000000     4.585000000
H    -0.456000000    -7.706000000     3.388000000
O    -0.502000000    -4.947000000     4.692000000
H    -0.130000000    -4.838000000     3.817000000
H     0.200000000    -4.679000000     5.286000000
O     4.597000000    -2.218000000     1.415000000
H     5.069000000    -2.280000000     0.585000000
H     3.994000000    -2.961000000     1.404000000
O     2.747000000    -9.653000000     3.952000000
H     2.064000000    -8.982000000     3.931000000
H     2.734000000   -10.036000000     3.075000000
O     4.510000000    -4.975000000    -0.337000000
H     3.689000000    -4.720000000     0.083000000
H     4.819000000    -5.723000000     0.175000000
O    -2.731000000    -5.170000000     6.660000000
H    -2.834000000    -4.261000000     6.940000000
H    -2.428000000    -5.109000000     5.754000000
O     5.452000000    -2.629000000     5.503000000
H     5.755000000    -3.063000000     6.300000000
H     4.888000000    -3.275000000     5.078000000
O     1.523000000    -7.312000000     3.731000000
H     1.345000000    -6.463000000     3.327000000
H     1.970000000    -7.098000000     4.551000000
O     0.177000000    -7.068000000     0.906000000
H     1.042000000    -7.048000000     0.497000000
H     0.101000000    -6.222000000     1.347000000
O     3.536000000    -4.563000000     4.397000000
H     4.234000000    -5.218000000     4.406000000
H     3.202000000    -4.581000000     3.501000000
O    -0.438000000    -9.421000000    -1.127000000
H    -0.757000000    -8.806000000    -0.467000000
H     0.406000000    -9.062000000    -1.401000000
O     6.382000000    -1.721000000     3.263000000
H     6.030000000    -1.862000000     4.141000000
H     5.629000000    -1.827000000     2.682000000
O     3.334000000    -7.732000000    -1.312000000
H     3.494000000    -7.424000000    -0.420000000
H     4.118000000    -7.476000000    -1.798000000
