215
-1471.06074
C     4.486000000     0.674000000     0.525000000
H     3.918000000     1.222000000     1.272000000
C     4.431000000     1.208000000    -0.714000000
C     5.118000000     0.523000000    -1.749000000
H     4.983000000     0.888000000    -2.764000000
C     3.454000000     2.390000000    -1.045000000
O     3.499000000     3.497000000    -0.151000000
H     2.491000000     1.892000000    -0.859000000
O     3.494000000     2.824000000    -2.403000000
C     2.379000000     2.812000000    -3.210000000
C     2.123000000     1.710000000    -4.003000000
H     2.777000000     0.843000000    -3.966000000
C     0.935000000     1.511000000    -4.597000000
O     0.715000000     0.213000000    -5.107000000
C    -0.139000000     2.441000000    -4.331000000
C    -1.595000000     2.200000000    -4.862000000
H    -2.000000000     3.185000000    -5.100000000
C    -2.407000000     1.371000000    -3.991000000
C    -3.272000000     2.003000000    -3.129000000
H    -3.147000000     3.082000000    -3.113000000
H    -1.529000000     1.767000000    -5.863000000
C     0.191000000     3.633000000    -3.648000000
H    -0.586000000     4.390000000    -3.583000000
C     1.406000000     3.768000000    -2.985000000
C     1.743000000     4.960000000    -2.095000000
H     1.184000000     5.845000000    -2.405000000
H     2.798000000     5.143000000    -2.313000000
C     1.452000000     4.659000000    -0.607000000
C     0.181000000     5.045000000    -0.166000000
H    -0.415000000     5.557000000    -0.917000000
C     2.303000000     3.928000000     0.249000000
C     1.954000000     3.748000000     1.553000000
H     2.686000000     3.240000000     2.177000000
C     0.705000000     4.153000000     2.050000000
O     0.323000000     3.744000000     3.285000000
C    -0.546000000     2.592000000     3.303000000
C    -0.142000000     1.689000000     4.473000000
C    -1.096000000     0.892000000     5.075000000
H    -2.153000000     1.115000000     4.955000000
C     1.214000000     1.388000000     4.646000000
H     1.887000000     1.883000000     3.951000000
O    -1.885000000     3.119000000     3.520000000
H    -0.532000000     2.030000000     2.357000000
C    -0.246000000     4.776000000     1.161000000
C    -1.630000000     5.116000000     1.541000000
H    -1.963000000     5.979000000     0.961000000
H    -1.797000000     5.507000000     2.547000000
C    -2.585000000     3.895000000     1.365000000
C    -3.311000000     3.658000000     0.204000000
H    -3.158000000     4.260000000    -0.688000000
C    -2.691000000     2.979000000     2.430000000
C    -3.508000000     1.841000000     2.301000000
H    -3.717000000     1.151000000     3.115000000
C    -4.089000000     1.595000000     1.062000000
O    -4.779000000     0.396000000     0.920000000
C    -4.169000000    -0.717000000     0.197000000
C    -4.412000000    -2.008000000     1.014000000
C    -4.626000000    -1.955000000     2.360000000
H    -4.789000000    -0.991000000     2.835000000
C    -4.149000000    -3.248000000     0.390000000
H    -3.851000000    -3.398000000    -0.644000000
O    -4.561000000    -0.813000000    -1.185000000
H    -3.079000000    -0.574000000     0.222000000
C    -4.049000000     2.456000000    -0.023000000
C    -4.820000000     2.165000000    -1.276000000
H    -5.076000000     3.152000000    -1.667000000
H    -5.768000000     1.712000000    -0.979000000
C    -4.098000000     1.284000000    -2.255000000
C    -3.996000000    -0.082000000    -2.193000000
C    -3.165000000    -0.773000000    -3.112000000
H    -3.122000000    -1.859000000    -3.102000000
C    -2.372000000    -0.014000000    -3.962000000
O    -1.391000000    -0.724000000    -4.699000000
C    -0.046000000    -0.625000000    -4.225000000
H    -0.016000000    -0.132000000    -3.242000000
C     0.590000000    -1.982000000    -3.980000000
C     1.718000000    -2.311000000    -4.726000000
H     2.084000000    -1.680000000    -5.532000000
C     0.080000000    -2.831000000    -3.037000000
H    -0.750000000    -2.480000000    -2.429000000
C     0.590000000    -4.124000000    -2.823000000
O     0.115000000    -5.069000000    -1.975000000
C     1.751000000    -4.521000000    -3.593000000
H     2.300000000    -5.418000000    -3.318000000
C     2.373000000    -3.549000000    -4.443000000
O     3.542000000    -3.772000000    -5.022000000
C     4.580000000    -2.901000000    -4.968000000
C     5.070000000    -2.426000000    -3.800000000
H     4.744000000    -2.894000000    -2.874000000
C     5.094000000    -2.425000000    -6.199000000
H     4.797000000    -2.858000000    -7.151000000
C     6.087000000    -1.400000000    -6.203000000
H     6.314000000    -0.960000000    -7.171000000
C     6.621000000    -0.997000000    -4.985000000
H     7.325000000    -0.173000000    -4.898000000
C     6.080000000    -1.493000000    -3.801000000
O     6.615000000    -1.211000000    -2.559000000
C     5.911000000    -0.615000000    -1.545000000
C     6.059000000    -1.067000000    -0.231000000
H     6.698000000    -1.928000000    -0.052000000
C     5.305000000    -0.469000000     0.787000000
O     5.505000000    -1.022000000     1.998000000
C     5.208000000    -0.260000000     3.110000000
C     4.159000000    -0.473000000     3.949000000
H     3.478000000    -1.282000000     3.698000000
C     6.077000000     0.826000000     3.370000000
H     6.855000000     0.943000000     2.620000000
C     5.847000000     1.697000000     4.445000000
H     6.359000000     2.643000000     4.603000000
C     4.766000000     1.436000000     5.269000000
H     4.492000000     2.105000000     6.080000000
C     3.933000000     0.362000000     5.065000000
O     2.902000000     0.091000000     5.928000000
C     1.584000000     0.433000000     5.634000000
C     0.581000000    -0.164000000     6.359000000
H     0.837000000    -0.836000000     7.174000000
C    -0.743000000    -0.033000000     6.073000000
O    -1.692000000    -0.766000000     6.753000000
C    -3.014000000    -0.862000000     6.368000000
C    -3.378000000    -1.841000000     5.457000000
H    -2.555000000    -2.427000000     5.055000000
C    -3.961000000    -0.123000000     7.105000000
H    -3.592000000     0.449000000     7.953000000
C    -5.288000000    -0.267000000     6.850000000
H    -6.083000000     0.285000000     7.345000000
C    -5.661000000    -1.206000000     5.838000000
H    -6.737000000    -1.261000000     5.700000000
C    -4.763000000    -2.000000000     5.159000000
O    -5.205000000    -3.012000000     4.427000000
C    -4.828000000    -3.062000000     3.119000000
C    -4.668000000    -4.333000000     2.594000000
H    -4.923000000    -5.158000000     3.254000000
C    -4.297000000    -4.434000000     1.223000000
O    -3.926000000    -5.704000000     0.726000000
C    -3.226000000    -5.752000000    -0.423000000
C    -3.975000000    -6.117000000    -1.572000000
H    -5.047000000    -6.294000000    -1.602000000
C    -3.320000000    -6.135000000    -2.819000000
H    -3.906000000    -6.390000000    -3.698000000
C    -1.970000000    -5.846000000    -2.919000000
H    -1.462000000    -5.693000000    -3.867000000
C    -1.237000000    -5.439000000    -1.813000000
C    -1.830000000    -5.385000000    -0.510000000
H    -1.334000000    -4.927000000     0.342000000
C    -0.190000000    -2.289000000     1.979000000
H    -0.756000000    -2.642000000     2.838000000
C    -0.618000000    -1.069000000     1.611000000
H    -1.491000000    -0.592000000     2.049000000
C     0.040000000    -0.410000000     0.606000000
H    -0.213000000     0.538000000     0.222000000
C     1.211000000    -0.961000000     0.037000000
H     1.738000000    -0.469000000    -0.777000000
C     1.688000000    -2.140000000     0.516000000
H     2.588000000    -2.630000000     0.152000000
C     0.995000000    -2.860000000     1.519000000
C     1.633000000    -4.080000000     2.147000000
O     2.674000000    -4.454000000     1.693000000
O     1.171000000    -4.640000000     3.126000000
O    -1.187000000    -4.004000000     7.276000000
H    -0.284000000    -3.924000000     6.969000000
H    -1.343000000    -3.202000000     7.774000000
O     3.580000000    -6.173000000     6.419000000
H     3.002000000    -5.482000000     6.742000000
H     3.995000000    -6.526000000     7.206000000
O     3.789000000    -3.058000000     6.330000000
H     4.590000000    -2.834000000     5.857000000
H     3.451000000    -2.218000000     6.641000000
O     1.644000000    -7.445000000    -1.550000000
H     1.085000000    -6.887000000    -2.091000000
H     1.299000000    -7.342000000    -0.663000000
O     3.869000000    -6.973000000     1.258000000
H     3.400000000    -6.226000000     0.886000000
H     3.283000000    -7.717000000     1.119000000
O     6.115000000    -4.173000000     5.258000000
H     6.242000000    -4.910000000     5.855000000
H     5.694000000    -4.557000000     4.489000000
O    -1.041000000    -8.447000000     5.318000000
H    -0.126000000    -8.684000000     5.171000000
H    -1.142000000    -7.598000000     4.888000000
O    -2.583000000    -8.561000000     2.383000000
H    -2.042000000    -7.861000000     2.748000000
H    -2.452000000    -8.497000000     1.437000000
O     1.279000000    -4.127000000     5.912000000
H     1.170000000    -4.196000000     4.964000000
H     2.145000000    -3.735000000     6.026000000
O     4.900000000    -4.075000000     0.403000000
H     4.118000000    -4.158000000     0.949000000
H     5.369000000    -3.325000000     0.770000000
O     7.533000000    -3.665000000     2.023000000
H     8.217000000    -4.280000000     2.288000000
H     6.718000000    -4.073000000     2.315000000
O    -1.273000000    -8.439000000     0.071000000
H    -0.487000000    -7.950000000     0.312000000
H    -0.983000000    -9.036000000    -0.619000000
O     6.562000000    -6.749000000     0.603000000
H     5.679000000    -7.065000000     0.798000000
H     6.452000000    -5.810000000     0.451000000
O    -2.721000000    -4.956000000     5.061000000
H    -3.669000000    -4.903000000     5.180000000
H    -2.358000000    -4.546000000     5.846000000
O     5.069000000    -8.298000000     4.072000000
H     4.421000000    -7.654000000     4.355000000
H     5.036000000    -8.268000000     3.116000000
O     2.035000000    -7.148000000     4.427000000
H     1.755000000    -6.453000000     3.832000000
H     2.413000000    -6.686000000     5.175000000
O    -1.014000000    -6.114000000     3.349000000
H    -0.380000000    -5.422000000     3.163000000
H    -1.592000000    -5.738000000     4.013000000
O     4.597000000    -5.359000000     3.267000000
H     4.446000000    -6.166000000     2.775000000
H     3.840000000    -4.810000000     3.064000000
O     0.792000000    -7.196000000     1.378000000
H     1.341000000    -6.475000000     1.686000000
H    -0.032000000    -7.089000000     1.853000000
