215
-1462.01663
C     5.180000000     1.872000000     0.979000000
H     4.740000000     2.610000000     1.645000000
C     4.787000000     1.860000000    -0.401000000
C     5.308000000     0.797000000    -1.197000000
H     5.051000000     0.657000000    -2.244000000
C     3.607000000     2.720000000    -0.909000000
O     3.518000000     4.011000000    -0.313000000
H     2.691000000     2.130000000    -0.757000000
O     3.659000000     2.770000000    -2.381000000
C     2.443000000     2.616000000    -3.071000000
C     2.210000000     1.408000000    -3.564000000
H     2.958000000     0.623000000    -3.488000000
C     1.067000000     1.099000000    -4.341000000
O     0.861000000    -0.110000000    -4.808000000
C     0.104000000     2.100000000    -4.503000000
C    -1.197000000     1.804000000    -5.109000000
H    -1.625000000     2.757000000    -5.427000000
C    -2.114000000     1.180000000    -4.037000000
C    -3.066000000     2.009000000    -3.384000000
H    -2.997000000     3.093000000    -3.425000000
H    -1.199000000     1.154000000    -5.987000000
C     0.271000000     3.322000000    -3.885000000
H    -0.430000000     4.149000000    -3.970000000
C     1.483000000     3.618000000    -3.215000000
C     1.629000000     4.951000000    -2.457000000
H     0.895000000     5.654000000    -2.855000000
H     2.625000000     5.384000000    -2.569000000
C     1.339000000     4.910000000    -1.007000000
C     0.006000000     5.266000000    -0.592000000
H    -0.749000000     5.671000000    -1.261000000
C     2.217000000     4.328000000    -0.028000000
C     1.725000000     4.074000000     1.289000000
H     2.284000000     3.535000000     2.049000000
C     0.391000000     4.219000000     1.556000000
O    -0.010000000     3.792000000     2.816000000
C    -0.849000000     2.626000000     2.952000000
C    -0.375000000     1.593000000     4.038000000
C    -1.250000000     1.049000000     4.986000000
H    -2.237000000     1.503000000     4.989000000
C     0.958000000     1.164000000     3.990000000
H     1.599000000     1.485000000     3.173000000
O    -2.231000000     3.010000000     3.155000000
H    -0.889000000     2.046000000     2.018000000
C    -0.453000000     4.898000000     0.684000000
C    -1.875000000     5.169000000     1.081000000
H    -2.285000000     5.916000000     0.398000000
H    -1.863000000     5.513000000     2.117000000
C    -2.787000000     3.941000000     0.955000000
C    -3.425000000     3.717000000    -0.249000000
H    -3.207000000     4.344000000    -1.110000000
C    -2.981000000     3.033000000     2.016000000
C    -3.849000000     1.966000000     1.867000000
H    -3.905000000     1.201000000     2.637000000
C    -4.513000000     1.747000000     0.665000000
O    -5.224000000     0.565000000     0.502000000
C    -4.487000000    -0.556000000    -0.096000000
C    -4.677000000    -1.914000000     0.568000000
C    -4.701000000    -2.028000000     1.998000000
H    -4.583000000    -1.129000000     2.598000000
C    -4.660000000    -3.083000000    -0.165000000
H    -4.550000000    -3.062000000    -1.246000000
O    -4.953000000    -0.573000000    -1.522000000
H    -3.412000000    -0.326000000    -0.064000000
C    -4.315000000     2.678000000    -0.353000000
C    -4.930000000     2.368000000    -1.748000000
H    -5.121000000     3.341000000    -2.205000000
H    -5.918000000     1.908000000    -1.679000000
C    -4.030000000     1.412000000    -2.553000000
C    -4.015000000     0.015000000    -2.316000000
C    -3.157000000    -0.766000000    -3.013000000
H    -3.291000000    -1.835000000    -2.865000000
C    -2.132000000    -0.240000000    -3.763000000
O    -1.275000000    -1.117000000    -4.434000000
C     0.077000000    -0.977000000    -3.939000000
H     0.050000000    -0.539000000    -2.930000000
C     0.684000000    -2.293000000    -3.700000000
C     2.037000000    -2.495000000    -3.893000000
H     2.642000000    -1.671000000    -4.264000000
C    -0.020000000    -3.233000000    -2.929000000
H    -1.073000000    -3.108000000    -2.689000000
C     0.591000000    -4.417000000    -2.541000000
O    -0.136000000    -5.285000000    -1.807000000
C     1.846000000    -4.759000000    -2.985000000
H     2.240000000    -5.715000000    -2.650000000
C     2.569000000    -3.759000000    -3.545000000
O     3.958000000    -4.043000000    -3.755000000
C     4.996000000    -3.218000000    -3.741000000
C     5.255000000    -2.491000000    -2.594000000
H     4.795000000    -2.684000000    -1.628000000
C     5.729000000    -3.088000000    -4.885000000
H     5.394000000    -3.642000000    -5.759000000
C     6.915000000    -2.299000000    -4.855000000
H     7.567000000    -2.251000000    -5.723000000
C     7.311000000    -1.636000000    -3.706000000
H     8.238000000    -1.068000000    -3.701000000
C     6.438000000    -1.662000000    -2.587000000
O     6.887000000    -1.064000000    -1.386000000
C     6.210000000    -0.112000000    -0.643000000
C     6.635000000     0.032000000     0.686000000
H     7.278000000    -0.749000000     1.085000000
C     6.121000000     1.000000000     1.508000000
O     6.631000000     1.015000000     2.789000000
C     5.819000000     1.107000000     3.899000000
C     4.677000000     0.254000000     3.861000000
H     4.505000000    -0.399000000     3.009000000
C     5.984000000     2.119000000     4.908000000
H     6.829000000     2.801000000     4.857000000
C     4.921000000     2.270000000     5.809000000
H     4.999000000     2.972000000     6.635000000
C     3.915000000     1.316000000     5.836000000
H     3.144000000     1.448000000     6.591000000
C     3.729000000     0.386000000     4.793000000
O     2.652000000    -0.403000000     4.819000000
C     1.366000000     0.139000000     4.906000000
C     0.424000000    -0.463000000     5.747000000
H     0.702000000    -1.286000000     6.400000000
C    -0.880000000     0.050000000     5.799000000
O    -1.815000000    -0.569000000     6.602000000
C    -3.075000000    -0.911000000     6.101000000
C    -3.234000000    -2.072000000     5.318000000
H    -2.368000000    -2.659000000     5.023000000
C    -4.163000000    -0.237000000     6.524000000
H    -4.096000000     0.691000000     7.086000000
C    -5.425000000    -0.577000000     6.150000000
H    -6.246000000     0.050000000     6.487000000
C    -5.629000000    -1.629000000     5.271000000
H    -6.623000000    -1.851000000     4.890000000
C    -4.542000000    -2.454000000     4.938000000
O    -4.721000000    -3.446000000     4.006000000
C    -4.860000000    -3.275000000     2.612000000
C    -5.052000000    -4.381000000     1.802000000
H    -5.104000000    -5.337000000     2.318000000
C    -4.904000000    -4.298000000     0.470000000
O    -4.662000000    -5.478000000    -0.206000000
C    -3.658000000    -5.762000000    -1.141000000
C    -4.030000000    -6.401000000    -2.346000000
H    -5.027000000    -6.824000000    -2.440000000
C    -3.155000000    -6.650000000    -3.381000000
H    -3.309000000    -7.088000000    -4.364000000
C    -1.844000000    -6.214000000    -3.186000000
H    -1.119000000    -6.352000000    -3.983000000
C    -1.454000000    -5.650000000    -1.945000000
C    -2.336000000    -5.476000000    -0.887000000
H    -2.015000000    -4.928000000    -0.005000000
C     0.251000000    -2.110000000     1.388000000
H    -0.313000000    -2.682000000     2.120000000
C    -0.286000000    -0.989000000     0.829000000
H    -1.258000000    -0.564000000     1.066000000
C     0.468000000    -0.253000000    -0.042000000
H     0.042000000     0.608000000    -0.536000000
C     1.742000000    -0.613000000    -0.416000000
H     2.239000000    -0.041000000    -1.196000000
C     2.307000000    -1.725000000     0.229000000
H     3.329000000    -2.006000000    -0.015000000
C     1.522000000    -2.566000000     1.047000000
C     2.114000000    -3.730000000     1.720000000
O     3.236000000    -4.207000000     1.367000000
O     1.324000000    -4.348000000     2.430000000
O     6.246000000    -5.353000000    -1.276000000
H     6.844000000    -6.089000000    -1.146000000
H     5.430000000    -5.630000000    -0.859000000
O     3.585000000    -2.337000000     6.870000000
H     4.023000000    -2.762000000     7.608000000
H     3.406000000    -1.449000000     7.178000000
O     3.491000000    -6.405000000    -0.255000000
H     3.411000000    -7.191000000     0.284000000
H     3.266000000    -5.686000000     0.335000000
O     0.725000000    -7.094000000     5.406000000
H     0.890000000    -7.013000000     4.466000000
H     0.965000000    -7.997000000     5.614000000
O     7.041000000    -3.145000000     0.246000000
H     6.749000000    -3.773000000    -0.414000000
H     7.129000000    -2.320000000    -0.231000000
O     3.506000000    -9.130000000     1.091000000
H     3.434000000    -9.858000000     0.473000000
H     4.072000000    -9.463000000     1.788000000
O    -2.665000000    -7.235000000     1.855000000
H    -2.198000000    -6.505000000     2.262000000
H    -3.473000000    -6.846000000     1.520000000
O     2.121000000    -5.495000000     7.076000000
H     2.388000000    -4.914000000     6.363000000
H     1.588000000    -6.167000000     6.651000000
O     1.938000000    -3.941000000     4.868000000
H     1.636000000    -4.078000000     3.970000000
H     2.362000000    -3.083000000     4.850000000
O     5.119000000    -2.897000000     2.239000000
H     4.434000000    -3.312000000     1.715000000
H     5.914000000    -2.995000000     1.715000000
O     7.328000000    -6.439000000     2.858000000
H     6.491000000    -6.598000000     2.423000000
H     7.091000000    -6.027000000     3.689000000
O     0.477000000   -10.169000000     0.836000000
H     0.542000000    -9.297000000     0.447000000
H     1.373000000   -10.385000000     1.093000000
O     4.537000000    -6.127000000     2.466000000
H     4.179000000    -5.283000000     2.193000000
H     3.773000000    -6.698000000     2.543000000
O     5.926000000    -5.583000000     5.017000000
H     6.231000000    -4.677000000     4.979000000
H     5.206000000    -5.621000000     4.387000000
O     1.571000000    -6.862000000     2.693000000
H     1.163000000    -7.132000000     1.870000000
H     1.592000000    -5.906000000     2.647000000
O    -1.332000000    -5.249000000     3.189000000
H    -0.494000000    -4.795000000     3.099000000
H    -1.616000000    -5.052000000     4.081000000
O     5.451000000    -2.950000000     4.815000000
H     4.586000000    -2.702000000     5.144000000
H     5.357000000    -2.939000000     3.862000000
O     0.510000000    -7.337000000    -0.054000000
H    -0.315000000    -7.587000000    -0.470000000
H     0.637000000    -6.422000000    -0.303000000
O     2.759000000    -8.242000000    -2.441000000
H     2.015000000    -8.666000000    -2.013000000
H     3.069000000    -7.601000000    -1.803000000
