215
-1445.81569
C     4.677000000     1.126000000     0.349000000
H     4.187000000     1.848000000     0.998000000
C     4.534000000     1.281000000    -1.041000000
C     5.132000000     0.300000000    -1.872000000
H     4.840000000     0.149000000    -2.908000000
C     3.385000000     2.136000000    -1.583000000
O     3.461000000     3.438000000    -1.017000000
H     2.457000000     1.671000000    -1.218000000
O     3.478000000     2.287000000    -3.014000000
C     2.294000000     2.044000000    -3.666000000
C     2.010000000     0.729000000    -4.147000000
H     2.745000000    -0.068000000    -4.228000000
C     0.719000000     0.452000000    -4.599000000
O     0.325000000    -0.825000000    -4.971000000
C    -0.206000000     1.494000000    -4.639000000
C    -1.642000000     1.167000000    -5.102000000
H    -2.048000000     2.101000000    -5.497000000
C    -2.575000000     0.655000000    -4.032000000
C    -3.312000000     1.609000000    -3.267000000
H    -3.218000000     2.672000000    -3.471000000
H    -1.541000000     0.509000000    -5.967000000
C     0.033000000     2.747000000    -4.087000000
H    -0.658000000     3.575000000    -4.224000000
C     1.322000000     3.046000000    -3.567000000
C     1.581000000     4.469000000    -3.060000000
H     0.838000000     5.101000000    -3.552000000
H     2.552000000     4.886000000    -3.333000000
C     1.372000000     4.565000000    -1.595000000
C     0.110000000     4.979000000    -1.123000000
H    -0.660000000     5.216000000    -1.853000000
C     2.259000000     4.038000000    -0.688000000
C     1.970000000     4.034000000     0.668000000
H     2.670000000     3.688000000     1.424000000
C     0.743000000     4.541000000     1.138000000
O     0.449000000     4.424000000     2.503000000
C    -0.315000000     3.154000000     2.871000000
C     0.275000000     2.323000000     4.030000000
C    -0.445000000     1.259000000     4.520000000
H    -1.388000000     1.027000000     4.033000000
C     1.542000000     2.549000000     4.545000000
H     2.042000000     3.436000000     4.165000000
O    -1.682000000     3.420000000     2.951000000
H    -0.234000000     2.445000000     2.034000000
C    -0.248000000     5.014000000     0.242000000
C    -1.640000000     5.355000000     0.666000000
H    -2.074000000     6.098000000    -0.007000000
H    -1.560000000     5.852000000     1.635000000
C    -2.539000000     4.089000000     0.785000000
C    -3.399000000     3.803000000    -0.312000000
H    -3.473000000     4.514000000    -1.131000000
C    -2.491000000     3.225000000     1.908000000
C    -3.471000000     2.288000000     2.037000000
H    -3.521000000     1.629000000     2.900000000
C    -4.253000000     1.944000000     0.936000000
O    -5.051000000     0.866000000     1.078000000
C    -4.427000000    -0.285000000     0.497000000
C    -4.487000000    -1.584000000     1.408000000
C    -4.753000000    -1.408000000     2.800000000
H    -5.222000000    -0.499000000     3.168000000
C    -4.110000000    -2.807000000     0.923000000
H    -3.748000000    -2.905000000    -0.097000000
O    -4.939000000    -0.573000000    -0.867000000
H    -3.339000000    -0.144000000     0.414000000
C    -4.265000000     2.704000000    -0.244000000
C    -5.033000000     2.222000000    -1.567000000
H    -5.261000000     3.091000000    -2.188000000
H    -5.941000000     1.691000000    -1.273000000
C    -4.250000000     1.135000000    -2.344000000
C    -4.178000000    -0.168000000    -1.968000000
C    -3.373000000    -1.068000000    -2.635000000
H    -3.441000000    -2.120000000    -2.371000000
C    -2.642000000    -0.685000000    -3.736000000
O    -1.861000000    -1.557000000    -4.419000000
C    -0.483000000    -1.532000000    -3.972000000
H    -0.421000000    -0.969000000    -3.029000000
C     0.023000000    -2.927000000    -3.705000000
C     1.418000000    -3.144000000    -3.832000000
H     2.132000000    -2.359000000    -4.066000000
C    -0.844000000    -3.950000000    -3.320000000
H    -1.920000000    -3.862000000    -3.193000000
C    -0.278000000    -5.211000000    -3.105000000
O    -1.012000000    -6.310000000    -2.681000000
C     1.092000000    -5.390000000    -3.142000000
H     1.486000000    -6.394000000    -3.010000000
C     1.940000000    -4.383000000    -3.520000000
O     3.265000000    -4.739000000    -3.711000000
C     4.221000000    -3.819000000    -4.021000000
C     4.744000000    -2.963000000    -3.012000000
H     4.283000000    -2.964000000    -2.028000000
C     4.773000000    -3.809000000    -5.245000000
H     4.304000000    -4.409000000    -6.021000000
C     5.896000000    -3.014000000    -5.486000000
H     6.173000000    -2.975000000    -6.536000000
C     6.414000000    -2.226000000    -4.482000000
H     7.249000000    -1.600000000    -4.787000000
C     5.872000000    -2.196000000    -3.240000000
O     6.494000000    -1.635000000    -2.141000000
C     6.058000000    -0.629000000    -1.341000000
C     6.311000000    -0.600000000     0.035000000
H     7.031000000    -1.295000000     0.458000000
C     5.600000000     0.207000000     0.874000000
O     5.697000000     0.010000000     2.233000000
C     5.543000000     0.981000000     3.161000000
C     4.576000000     0.934000000     4.164000000
H     3.896000000     0.092000000     4.270000000
C     6.349000000     2.107000000     3.093000000
H     6.981000000     2.073000000     2.209000000
C     6.175000000     3.209000000     3.961000000
H     6.826000000     4.066000000     3.808000000
C     5.195000000     3.087000000     4.969000000
H     4.965000000     3.967000000     5.564000000
C     4.459000000     1.963000000     5.007000000
O     3.398000000     1.926000000     5.944000000
C     2.135000000     1.691000000     5.515000000
C     1.344000000     0.628000000     5.984000000
H     1.730000000    -0.021000000     6.765000000
C     0.080000000     0.392000000     5.505000000
O    -0.659000000    -0.545000000     6.140000000
C    -2.086000000    -0.511000000     6.261000000
C    -2.874000000    -1.435000000     5.567000000
H    -2.452000000    -2.222000000     4.947000000
C    -2.604000000     0.360000000     7.142000000
H    -2.011000000     0.994000000     7.797000000
C    -3.964000000     0.344000000     7.307000000
H    -4.353000000     0.955000000     8.118000000
C    -4.798000000    -0.574000000     6.616000000
H    -5.852000000    -0.534000000     6.881000000
C    -4.215000000    -1.483000000     5.705000000
O    -5.039000000    -2.222000000     4.927000000
C    -4.712000000    -2.459000000     3.602000000
C    -4.204000000    -3.691000000     3.186000000
H    -4.204000000    -4.509000000     3.901000000
C    -3.912000000    -3.871000000     1.838000000
O    -3.197000000    -5.028000000     1.497000000
C    -3.194000000    -5.483000000     0.171000000
C    -4.411000000    -5.951000000    -0.262000000
H    -5.238000000    -5.748000000     0.414000000
C    -4.513000000    -6.456000000    -1.566000000
H    -5.542000000    -6.531000000    -1.910000000
C    -3.411000000    -6.549000000    -2.376000000
H    -3.454000000    -6.991000000    -3.368000000
C    -2.138000000    -6.185000000    -1.873000000
C    -2.069000000    -5.682000000    -0.595000000
H    -1.130000000    -5.384000000    -0.136000000
C     0.366000000    -1.148000000     2.074000000
H     0.044000000    -1.336000000     3.095000000
C    -0.388000000    -0.296000000     1.327000000
H    -1.237000000     0.150000000     1.839000000
C    -0.015000000     0.061000000     0.019000000
H    -0.623000000     0.793000000    -0.475000000
C     1.101000000    -0.614000000    -0.524000000
H     1.349000000    -0.485000000    -1.574000000
C     1.834000000    -1.483000000     0.271000000
H     2.768000000    -1.821000000    -0.172000000
C     1.492000000    -1.699000000     1.589000000
C     2.177000000    -2.773000000     2.413000000
O     3.121000000    -3.336000000     1.946000000
O     1.861000000    -2.978000000     3.549000000
O     1.076000000    -6.749000000     5.312000000
H     1.496000000    -7.576000000     5.547000000
H     1.716000000    -6.306000000     4.755000000
O     2.870000000    -2.134000000     7.676000000
H     2.670000000    -2.831000000     8.300000000
H     2.504000000    -1.344000000     8.072000000
O     2.349000000    -7.427000000    -0.068000000
H     3.083000000    -7.564000000    -0.666000000
H     2.039000000    -6.544000000    -0.267000000
O     5.696000000    -8.593000000     3.902000000
H     5.855000000    -8.500000000     4.842000000
H     4.774000000    -8.360000000     3.792000000
O    -1.271000000    -6.825000000     6.806000000
H    -0.351000000    -6.612000000     6.645000000
H    -1.732000000    -5.993000000     6.695000000
O     0.040000000    -8.363000000     1.589000000
H     0.378000000    -7.813000000     0.882000000
H     0.463000000    -8.027000000     2.378000000
O     4.759000000    -7.013000000    -1.130000000
H     4.789000000    -6.062000000    -1.234000000
H     5.667000000    -7.263000000    -0.958000000
O     3.032000000    -5.288000000     3.913000000
H     2.457000000    -4.581000000     3.620000000
H     3.784000000    -4.841000000     4.300000000
O     4.948000000    -4.204000000     0.149000000
H     4.283000000    -3.979000000     0.799000000
H     5.768000000    -3.882000000     0.523000000
O     1.574000000    -4.511000000     8.235000000
H     2.237000000    -5.116000000     7.901000000
H     1.200000000    -4.109000000     7.451000000
O     3.896000000    -2.683000000     5.257000000
H     3.175000000    -2.660000000     4.628000000
H     3.478000000    -2.533000000     6.105000000
O     6.413000000    -3.338000000     6.416000000
H     5.581000000    -3.390000000     5.946000000
H     6.275000000    -2.654000000     7.072000000
O     8.239000000    -5.061000000     5.204000000
H     7.446000000    -4.575000000     5.431000000
H     8.073000000    -5.393000000     4.322000000
O     8.029000000    -1.103000000     4.135000000
H     7.518000000    -0.725000000     4.851000000
H     7.381000000    -1.537000000     3.581000000
O     0.597000000    -3.817000000     5.825000000
H     0.581000000    -4.738000000     5.567000000
H     0.791000000    -3.344000000     5.016000000
O     2.908000000    -7.557000000     2.633000000
H     3.013000000    -6.723000000     3.092000000
H     3.088000000    -7.350000000     1.716000000
O     5.493000000    -2.863000000     3.042000000
H     4.682000000    -2.903000000     2.535000000
H     5.206000000    -2.701000000     3.941000000
O     1.635000000    -4.451000000     0.039000000
H     1.008000000    -3.735000000    -0.060000000
H     2.185000000    -4.187000000     0.777000000
O     7.844000000    -6.991000000     3.176000000
H     6.919000000    -7.236000000     3.206000000
H     8.315000000    -7.819000000     3.267000000
