215
-1407.06218
C    -3.530000000    -2.837000000    -3.131000000
H    -3.544000000    -1.931000000    -3.731000000
C    -3.738000000    -2.755000000    -1.782000000
C    -3.688000000    -3.894000000    -1.012000000
H    -3.810000000    -3.865000000     0.067000000
C    -4.073000000    -1.405000000    -1.170000000
O    -4.721000000    -0.419000000    -2.138000000
H    -3.130000000    -0.988000000    -0.787000000
O    -4.893000000    -1.500000000     0.005000000
C    -4.643000000    -0.848000000     1.114000000
C    -3.909000000    -1.507000000     2.039000000
H    -3.659000000    -2.553000000     1.882000000
C    -3.289000000    -0.825000000     3.156000000
O    -2.543000000    -1.507000000     4.051000000
C    -3.686000000     0.550000000     3.319000000
C    -3.176000000     1.367000000     4.516000000
H    -3.743000000     2.290000000     4.649000000
C    -1.768000000     1.835000000     4.264000000
C    -1.568000000     3.146000000     3.695000000
H    -2.425000000     3.792000000     3.524000000
H    -3.244000000     0.827000000     5.462000000
C    -4.458000000     1.178000000     2.357000000
H    -4.583000000     2.254000000     2.445000000
C    -4.883000000     0.485000000     1.191000000
C    -5.591000000     1.320000000     0.082000000
H    -6.207000000     2.097000000     0.539000000
H    -6.304000000     0.625000000    -0.367000000
C    -4.578000000     1.723000000    -1.110000000
C    -3.935000000     2.942000000    -0.992000000
H    -4.312000000     3.639000000    -0.248000000
C    -4.241000000     0.879000000    -2.162000000
C    -3.293000000     1.201000000    -3.056000000
H    -3.008000000     0.458000000    -3.796000000
C    -2.558000000     2.399000000    -2.888000000
O    -1.383000000     2.550000000    -3.675000000
C    -0.068000000     2.586000000    -3.137000000
C     0.854000000     1.728000000    -3.938000000
C     2.207000000     2.101000000    -4.033000000
H     2.630000000     3.020000000    -3.636000000
C     0.403000000     0.463000000    -4.314000000
H    -0.625000000     0.140000000    -4.174000000
O     0.439000000     3.921000000    -2.791000000
H    -0.153000000     1.961000000    -2.236000000
C    -2.900000000     3.356000000    -1.885000000
C    -2.232000000     4.688000000    -1.816000000
H    -2.937000000     5.514000000    -1.709000000
H    -1.864000000     4.874000000    -2.827000000
C    -0.964000000     4.762000000    -0.963000000
C    -1.088000000     5.096000000     0.432000000
H    -2.077000000     5.409000000     0.757000000
C     0.269000000     4.387000000    -1.473000000
C     1.373000000     4.463000000    -0.700000000
H     2.340000000     4.123000000    -1.061000000
C     1.297000000     4.705000000     0.673000000
O     2.391000000     4.533000000     1.442000000
C     2.457000000     3.124000000     1.833000000
C     3.837000000     2.573000000     1.607000000
C     4.629000000     3.105000000     0.615000000
H     4.223000000     3.997000000     0.145000000
C     4.174000000     1.319000000     2.203000000
H     3.509000000     0.877000000     2.940000000
O     2.105000000     3.016000000     3.270000000
H     1.839000000     2.491000000     1.179000000
C     0.055000000     5.004000000     1.224000000
C    -0.103000000     5.020000000     2.773000000
H    -0.988000000     5.609000000     3.026000000
H     0.704000000     5.623000000     3.195000000
C    -0.263000000     3.663000000     3.484000000
C     0.830000000     2.777000000     3.655000000
C     0.618000000     1.543000000     4.106000000
H     1.434000000     0.827000000     4.055000000
C    -0.626000000     1.042000000     4.516000000
O    -0.760000000    -0.298000000     4.820000000
C    -1.133000000    -1.288000000     3.842000000
H    -0.933000000    -0.956000000     2.813000000
C    -0.285000000    -2.570000000     3.850000000
C    -0.755000000    -3.784000000     3.291000000
H    -1.746000000    -3.870000000     2.852000000
C     0.980000000    -2.421000000     4.292000000
H     1.380000000    -1.537000000     4.782000000
C     1.867000000    -3.523000000     4.059000000
O     3.248000000    -3.493000000     4.345000000
C     1.395000000    -4.742000000     3.525000000
H     2.085000000    -5.546000000     3.282000000
C     0.089000000    -4.864000000     3.118000000
O    -0.361000000    -6.015000000     2.540000000
C    -1.627000000    -6.233000000     2.123000000
C    -1.994000000    -5.997000000     0.789000000
H    -1.420000000    -5.488000000     0.019000000
C    -2.457000000    -6.768000000     3.133000000
H    -2.140000000    -6.968000000     4.153000000
C    -3.802000000    -6.930000000     2.726000000
H    -4.457000000    -6.994000000     3.591000000
C    -4.160000000    -6.815000000     1.435000000
H    -5.187000000    -7.065000000     1.178000000
C    -3.318000000    -6.357000000     0.446000000
O    -3.754000000    -6.230000000    -0.873000000
C    -3.590000000    -5.133000000    -1.620000000
C    -3.436000000    -5.195000000    -3.009000000
H    -3.488000000    -6.139000000    -3.546000000
C    -3.322000000    -4.057000000    -3.761000000
O    -2.995000000    -4.183000000    -5.103000000
C    -2.199000000    -3.302000000    -5.750000000
C    -0.955000000    -2.978000000    -5.298000000
H    -0.438000000    -3.623000000    -4.592000000
C    -2.774000000    -2.494000000    -6.789000000
H    -3.632000000    -2.963000000    -7.264000000
C    -2.010000000    -1.496000000    -7.393000000
H    -2.385000000    -1.076000000    -8.323000000
C    -0.683000000    -1.295000000    -6.970000000
H    -0.070000000    -0.518000000    -7.419000000
C    -0.202000000    -1.975000000    -5.828000000
O     1.024000000    -1.696000000    -5.251000000
C     1.392000000    -0.393000000    -4.845000000
C     2.707000000    -0.031000000    -5.048000000
H     3.416000000    -0.666000000    -5.573000000
C     3.134000000     1.202000000    -4.599000000
O     4.431000000     1.549000000    -4.672000000
C     5.181000000     2.418000000    -4.001000000
C     5.449000000     2.241000000    -2.627000000
H     4.873000000     1.482000000    -2.103000000
C     6.022000000     3.279000000    -4.743000000
H     6.100000000     3.238000000    -5.827000000
C     6.952000000     4.147000000    -4.147000000
H     7.503000000     4.856000000    -4.760000000
C     7.182000000     3.988000000    -2.765000000
H     8.034000000     4.525000000    -2.356000000
C     6.415000000     3.135000000    -2.031000000
O     6.692000000     3.023000000    -0.620000000
C     5.823000000     2.401000000     0.221000000
C     6.238000000     1.345000000     0.934000000
H     7.210000000     0.925000000     0.687000000
C     5.421000000     0.770000000     1.875000000
O     6.049000000    -0.222000000     2.573000000
C     5.554000000    -0.873000000     3.636000000
C     5.669000000    -0.238000000     4.870000000
H     6.163000000     0.724000000     4.970000000
C     4.992000000    -0.747000000     5.997000000
H     5.166000000    -0.391000000     7.009000000
C     4.191000000    -1.870000000     5.832000000
H     3.795000000    -2.363000000     6.717000000
C     3.998000000    -2.400000000     4.514000000
C     4.598000000    -1.887000000     3.422000000
H     4.474000000    -2.468000000     2.512000000
C     1.577000000    -2.143000000     0.365000000
H     2.361000000    -2.382000000     1.079000000
C     0.716000000    -1.053000000     0.571000000
H     0.823000000    -0.361000000     1.403000000
C    -0.311000000    -0.747000000    -0.356000000
H    -1.033000000    -0.004000000    -0.182000000
C    -0.418000000    -1.595000000    -1.468000000
H    -1.192000000    -1.370000000    -2.198000000
C     0.429000000    -2.679000000    -1.641000000
H     0.232000000    -3.327000000    -2.491000000
C     1.468000000    -2.950000000    -0.756000000
C     2.351000000    -4.126000000    -0.980000000
O     2.173000000    -4.728000000    -2.049000000
O     3.408000000    -4.068000000    -0.389000000
O     3.704000000    -3.903000000    -4.037000000
H     4.432000000    -4.258000000    -3.527000000
H     2.936000000    -4.032000000    -3.480000000
O     5.512000000    -4.499000000    -2.087000000
H     4.757000000    -4.475000000    -1.500000000
H     6.254000000    -4.258000000    -1.533000000
O     4.493000000    -7.526000000    -5.464000000
H     4.053000000    -7.309000000    -4.642000000
H     4.842000000    -8.406000000    -5.324000000
O     4.793000000    -8.870000000    -1.247000000
H     5.729000000    -8.838000000    -1.442000000
H     4.739000000    -9.321000000    -0.405000000
O     2.715000000    -9.627000000    -3.828000000
H     2.791000000    -9.185000000    -2.983000000
H     2.765000000   -10.559000000    -3.617000000
O     5.956000000    -1.392000000    -2.458000000
H     6.163000000    -1.649000000    -3.357000000
H     5.006000000    -1.494000000    -2.393000000
O     1.090000000    -9.194000000    -0.040000000
H     1.436000000   -10.058000000    -0.263000000
H     1.518000000    -8.970000000     0.786000000
O     0.382000000    -6.815000000    -3.316000000
H     0.571000000    -5.946000000    -2.960000000
H    -0.287000000    -7.173000000    -2.733000000
O    -1.037000000    -8.188000000    -1.419000000
H    -1.629000000    -8.144000000    -0.669000000
H    -0.185000000    -8.402000000    -1.039000000
O     2.999000000    -8.512000000     1.969000000
H     2.593000000    -8.533000000     2.836000000
H     3.870000000    -8.885000000     2.104000000
O     3.706000000    -6.734000000    -2.819000000
H     3.267000000    -5.931000000    -2.539000000
H     3.794000000    -7.251000000    -2.018000000
O     6.521000000    -5.188000000     3.318000000
H     6.705000000    -5.734000000     2.554000000
H     5.595000000    -4.961000000     3.232000000
O     4.139000000    -5.706000000     1.729000000
H     3.686000000    -6.519000000     1.505000000
H     3.971000000    -5.126000000     0.987000000
O     2.839000000    -3.925000000    -6.810000000
H     3.299000000    -3.406000000    -6.150000000
H     2.154000000    -4.380000000    -6.322000000
O     3.000000000    -0.855000000    -2.249000000
H     2.129000000    -0.756000000    -2.633000000
H     2.861000000    -0.744000000    -1.308000000
O     5.709000000    -2.012000000    -5.346000000
H     6.645000000    -2.138000000    -5.503000000
H     5.348000000    -2.899000000    -5.326000000
O     5.026000000    -2.136000000     0.215000000
H     4.366000000    -2.816000000     0.082000000
H     5.085000000    -1.692000000    -0.631000000
O     6.604000000    -5.998000000    -4.102000000
H     5.899000000    -6.548000000    -4.443000000
H     6.173000000    -5.420000000    -3.471000000
O     1.739000000    -6.277000000    -5.751000000
H     2.600000000    -6.664000000    -5.911000000
H     1.649000000    -6.279000000    -4.798000000
