215
-1466.41237
C     3.744000000     2.597000000     1.000000000
H     2.798000000     2.910000000     1.434000000
C     3.950000000     2.626000000    -0.341000000
C     5.114000000     2.052000000    -0.898000000
H     5.202000000     1.917000000    -1.974000000
C     2.688000000     3.092000000    -1.086000000
O     2.220000000     4.400000000    -0.861000000
H     1.877000000     2.390000000    -0.845000000
O     3.109000000     2.931000000    -2.510000000
C     2.161000000     2.342000000    -3.263000000
C     2.461000000     1.042000000    -3.691000000
H     3.384000000     0.500000000    -3.501000000
C     1.434000000     0.342000000    -4.321000000
O     1.614000000    -1.040000000    -4.478000000
C     0.305000000     0.986000000    -4.748000000
C    -0.726000000     0.228000000    -5.525000000
H    -1.383000000     0.850000000    -6.136000000
C    -1.698000000    -0.581000000    -4.652000000
C    -2.885000000     0.018000000    -4.235000000
H    -3.088000000     1.011000000    -4.627000000
H    -0.220000000    -0.425000000    -6.240000000
C     0.108000000     2.351000000    -4.460000000
H    -0.734000000     2.920000000    -4.848000000
C     0.996000000     3.019000000    -3.652000000
C     0.743000000     4.488000000    -3.275000000
H     0.124000000     4.917000000    -4.066000000
H     1.704000000     5.001000000    -3.200000000
C     0.103000000     4.677000000    -1.913000000
C    -1.283000000     4.774000000    -1.720000000
H    -1.943000000     4.873000000    -2.578000000
C     0.860000000     4.485000000    -0.750000000
C     0.321000000     4.543000000     0.532000000
H     1.013000000     4.521000000     1.370000000
C    -1.037000000     4.554000000     0.687000000
O    -1.571000000     4.337000000     1.973000000
C    -1.943000000     2.945000000     2.282000000
C    -1.497000000     2.521000000     3.666000000
C    -2.171000000     1.467000000     4.313000000
H    -3.059000000     1.010000000     3.883000000
C    -0.407000000     3.184000000     4.223000000
H     0.129000000     3.973000000     3.700000000
O    -3.399000000     2.784000000     2.109000000
H    -1.439000000     2.240000000     1.604000000
C    -1.844000000     4.568000000    -0.447000000
C    -3.331000000     4.528000000    -0.370000000
H    -3.842000000     5.042000000    -1.187000000
H    -3.703000000     5.049000000     0.515000000
C    -3.828000000     3.090000000    -0.300000000
C    -4.240000000     2.429000000    -1.453000000
H    -4.112000000     2.934000000    -2.407000000
C    -3.940000000     2.415000000     0.892000000
C    -4.304000000     1.045000000     0.900000000
H    -4.251000000     0.445000000     1.805000000
C    -4.664000000     0.437000000    -0.287000000
O    -4.968000000    -0.928000000    -0.272000000
C    -3.881000000    -1.833000000    -0.550000000
C    -3.735000000    -2.887000000     0.543000000
C    -4.305000000    -2.773000000     1.805000000
H    -5.059000000    -2.002000000     1.947000000
C    -2.751000000    -3.946000000     0.399000000
H    -2.116000000    -3.911000000    -0.482000000
O    -4.089000000    -2.451000000    -1.832000000
H    -2.917000000    -1.311000000    -0.648000000
C    -4.717000000     1.109000000    -1.522000000
C    -4.930000000     0.344000000    -2.790000000
H    -5.267000000     0.997000000    -3.598000000
H    -5.815000000    -0.287000000    -2.681000000
C    -3.711000000    -0.463000000    -3.201000000
C    -3.408000000    -1.773000000    -2.798000000
C    -2.313000000    -2.425000000    -3.243000000
H    -2.285000000    -3.464000000    -2.924000000
C    -1.383000000    -1.879000000    -4.141000000
O    -0.197000000    -2.508000000    -4.376000000
C     0.969000000    -2.004000000    -3.637000000
H     0.643000000    -1.597000000    -2.669000000
C     1.968000000    -3.130000000    -3.269000000
C     3.151000000    -2.719000000    -2.650000000
H     3.516000000    -1.697000000    -2.720000000
C     1.548000000    -4.455000000    -3.156000000
H     0.681000000    -4.829000000    -3.693000000
C     2.285000000    -5.394000000    -2.400000000
O     1.740000000    -6.677000000    -2.119000000
C     3.480000000    -4.987000000    -1.798000000
H     4.073000000    -5.695000000    -1.225000000
C     3.880000000    -3.630000000    -1.905000000
O     4.959000000    -3.258000000    -1.121000000
C     5.961000000    -2.387000000    -1.545000000
C     6.185000000    -1.272000000    -0.772000000
H     5.535000000    -1.037000000     0.067000000
C     6.770000000    -2.613000000    -2.645000000
H     6.548000000    -3.392000000    -3.369000000
C     7.891000000    -1.798000000    -2.944000000
H     8.561000000    -2.067000000    -3.757000000
C     8.102000000    -0.640000000    -2.250000000
H     8.878000000     0.101000000    -2.427000000
C     7.201000000    -0.377000000    -1.191000000
O     7.265000000     0.848000000    -0.535000000
C     6.075000000     1.458000000    -0.050000000
C     5.840000000     1.550000000     1.332000000
H     6.653000000     1.375000000     2.033000000
C     4.694000000     2.094000000     1.894000000
O     4.409000000     2.027000000     3.223000000
C     3.904000000     2.981000000     4.027000000
C     2.676000000     2.750000000     4.656000000
H     2.195000000     1.788000000     4.500000000
C     4.562000000     4.168000000     4.029000000
H     5.591000000     4.117000000     3.681000000
C     4.063000000     5.144000000     4.886000000
H     4.685000000     5.991000000     5.163000000
C     2.787000000     4.985000000     5.559000000
H     2.293000000     5.732000000     6.175000000
C     2.115000000     3.790000000     5.377000000
O     0.977000000     3.505000000     6.090000000
C    -0.033000000     2.849000000     5.526000000
C    -0.710000000     1.807000000     6.176000000
H    -0.547000000     1.651000000     7.240000000
C    -1.676000000     1.036000000     5.544000000
O    -2.237000000    -0.056000000     6.255000000
C    -3.485000000    -0.559000000     5.851000000
C    -3.538000000    -1.813000000     5.211000000
H    -2.576000000    -2.313000000     5.138000000
C    -4.612000000     0.095000000     6.127000000
H    -4.605000000     1.016000000     6.705000000
C    -5.857000000    -0.486000000     5.705000000
H    -6.798000000     0.025000000     5.892000000
C    -5.851000000    -1.667000000     4.922000000
H    -6.760000000    -2.006000000     4.434000000
C    -4.654000000    -2.303000000     4.695000000
O    -4.589000000    -3.544000000     4.036000000
C    -3.927000000    -3.616000000     2.862000000
C    -3.058000000    -4.670000000     2.634000000
H    -2.789000000    -5.362000000     3.428000000
C    -2.531000000    -4.861000000     1.364000000
O    -1.551000000    -5.852000000     1.154000000
C    -1.234000000    -6.196000000    -0.139000000
C    -2.261000000    -6.591000000    -1.033000000
H    -3.319000000    -6.458000000    -0.820000000
C    -1.845000000    -7.227000000    -2.201000000
H    -2.610000000    -7.532000000    -2.912000000
C    -0.501000000    -7.355000000    -2.517000000
H    -0.225000000    -7.729000000    -3.500000000
C     0.447000000    -6.773000000    -1.686000000
C     0.041000000    -6.094000000    -0.562000000
H     0.774000000    -5.496000000    -0.027000000
C     0.549000000    -0.884000000     2.179000000
H     0.216000000    -1.071000000     3.197000000
C    -0.400000000    -0.302000000     1.321000000
H    -1.348000000     0.055000000     1.714000000
C    -0.026000000    -0.012000000     0.010000000
H    -0.688000000     0.599000000    -0.639000000
C     1.245000000    -0.314000000    -0.454000000
H     1.578000000     0.008000000    -1.438000000
C     2.187000000    -0.827000000     0.462000000
H     3.235000000    -0.895000000     0.181000000
C     1.878000000    -1.106000000     1.778000000
C     2.881000000    -1.460000000     2.757000000
O     4.067000000    -1.355000000     2.511000000
O     2.528000000    -1.558000000     3.927000000
O     0.279000000    -6.155000000     3.211000000
H    -0.451000000    -5.597000000     2.943000000
H     1.019000000    -5.852000000     2.684000000
O     5.305000000    -3.655000000     1.570000000
H     4.818000000    -2.978000000     2.039000000
H     5.298000000    -3.367000000     0.657000000
O     4.461000000    -2.774000000     8.803000000
H     4.990000000    -1.991000000     8.650000000
H     3.576000000    -2.440000000     8.950000000
O     5.851000000    -0.411000000     7.716000000
H     5.389000000    -0.385000000     6.879000000
H     5.755000000     0.472000000     8.071000000
O     3.511000000    -6.031000000     5.648000000
H     3.520000000    -5.147000000     5.280000000
H     2.597000000    -6.308000000     5.582000000
O     7.838000000    -2.130000000     6.725000000
H     7.474000000    -2.751000000     6.094000000
H     7.082000000    -1.633000000     7.036000000
O     6.621000000    -3.961000000     4.888000000
H     5.793000000    -3.865000000     4.417000000
H     6.948000000    -4.822000000     4.624000000
O     2.497000000    -4.838000000     2.054000000
H     3.219000000    -4.306000000     1.719000000
H     2.812000000    -5.739000000     1.984000000
O     8.629000000    -0.699000000     2.683000000
H     8.633000000     0.247000000     2.538000000
H     7.915000000    -0.844000000     3.303000000
O     6.436000000    -6.449000000     1.018000000
H     6.999000000    -5.887000000     1.550000000
H     5.820000000    -6.832000000     1.643000000
O     1.501000000    -1.752000000     8.935000000
H     1.767000000    -0.835000000     8.869000000
H     1.272000000    -1.999000000     8.039000000
O    -0.532000000    -4.152000000     5.368000000
H     0.117000000    -4.847000000     5.483000000
H    -0.126000000    -3.378000000     5.757000000
O     5.173000000    -7.355000000     3.487000000
H     6.029000000    -6.970000000     3.676000000
H     4.602000000    -7.019000000     4.178000000
O     6.475000000    -1.051000000     4.119000000
H     6.439000000    -1.994000000     4.283000000
H     5.777000000    -0.891000000     3.484000000
O     6.875000000     1.584000000     5.196000000
H     6.407000000     0.761000000     5.054000000
H     6.195000000     2.257000000     5.152000000
O     0.693000000    -6.436000000     5.899000000
H     0.974000000    -7.296000000     6.212000000
H     0.568000000    -6.553000000     4.957000000
O     3.995000000    -3.369000000     5.175000000
H     3.535000000    -2.860000000     4.507000000
H     4.357000000    -2.712000000     5.769000000
O     4.189000000    -0.105000000     5.394000000
H     3.606000000     0.653000000     5.422000000
H     3.741000000    -0.732000000     4.827000000
O     0.618000000    -1.775000000     6.006000000
H     0.614000000    -0.860000000     6.288000000
H     0.997000000    -1.754000000     5.128000000
