215
-1464.01916
C    -3.818000000    -2.523000000    -2.897000000
H    -3.665000000    -1.555000000    -3.366000000
C    -4.099000000    -2.570000000    -1.535000000
C    -4.154000000    -3.768000000    -0.927000000
H    -4.402000000    -3.678000000     0.128000000
C    -4.240000000    -1.259000000    -0.726000000
O    -4.775000000    -0.218000000    -1.540000000
H    -3.219000000    -0.913000000    -0.509000000
O    -5.078000000    -1.328000000     0.459000000
C    -4.593000000    -0.670000000     1.475000000
C    -3.809000000    -1.454000000     2.273000000
H    -3.635000000    -2.519000000     2.142000000
C    -3.085000000    -0.876000000     3.353000000
O    -2.238000000    -1.697000000     4.061000000
C    -3.250000000     0.476000000     3.578000000
C    -2.544000000     1.281000000     4.672000000
H    -3.095000000     2.212000000     4.821000000
C    -1.087000000     1.621000000     4.362000000
C    -0.861000000     2.984000000     3.944000000
H    -1.604000000     3.773000000     4.012000000
H    -2.525000000     0.730000000     5.615000000
C    -4.023000000     1.246000000     2.705000000
H    -4.114000000     2.318000000     2.863000000
C    -4.717000000     0.707000000     1.614000000
C    -5.539000000     1.531000000     0.659000000
H    -5.947000000     2.380000000     1.212000000
H    -6.455000000     1.056000000     0.302000000
C    -4.626000000     1.997000000    -0.510000000
C    -4.004000000     3.206000000    -0.423000000
H    -4.269000000     3.836000000     0.422000000
C    -4.291000000     1.064000000    -1.511000000
C    -3.477000000     1.492000000    -2.564000000
H    -3.294000000     0.860000000    -3.430000000
C    -2.826000000     2.664000000    -2.455000000
O    -1.892000000     2.957000000    -3.441000000
C    -0.494000000     2.938000000    -2.933000000
C     0.502000000     2.174000000    -3.784000000
C     1.860000000     2.605000000    -3.983000000
H     2.143000000     3.627000000    -3.742000000
C     0.116000000     0.945000000    -4.335000000
H    -0.928000000     0.672000000    -4.203000000
O    -0.105000000     4.260000000    -2.659000000
H    -0.554000000     2.373000000    -1.992000000
C    -3.011000000     3.540000000    -1.361000000
C    -2.355000000     4.919000000    -1.223000000
H    -3.066000000     5.615000000    -0.772000000
H    -2.351000000     5.381000000    -2.213000000
C    -1.046000000     4.896000000    -0.533000000
C    -0.859000000     4.988000000     0.870000000
H    -1.696000000     5.369000000     1.450000000
C     0.013000000     4.569000000    -1.291000000
C     1.210000000     4.261000000    -0.743000000
H     2.000000000     3.927000000    -1.411000000
C     1.385000000     4.322000000     0.610000000
O     2.641000000     4.021000000     1.158000000
C     2.820000000     2.690000000     1.623000000
C     4.101000000     2.023000000     1.174000000
C     4.872000000     2.474000000     0.123000000
H     4.562000000     3.282000000    -0.534000000
C     4.494000000     0.895000000     1.841000000
H     3.818000000     0.503000000     2.596000000
O     2.720000000     2.637000000     3.062000000
H     1.997000000     2.118000000     1.169000000
C     0.349000000     4.734000000     1.456000000
C     0.577000000     4.759000000     2.940000000
H    -0.091000000     5.478000000     3.419000000
H     1.630000000     4.868000000     3.209000000
C     0.438000000     3.366000000     3.576000000
C     1.490000000     2.416000000     3.531000000
C     1.278000000     1.163000000     4.098000000
H     2.133000000     0.525000000     4.307000000
C     0.001000000     0.756000000     4.441000000
O    -0.279000000    -0.563000000     4.756000000
C    -0.814000000    -1.410000000     3.776000000
H    -0.663000000    -1.045000000     2.749000000
C    -0.006000000    -2.686000000     3.805000000
C    -0.592000000    -3.738000000     3.079000000
H    -1.526000000    -3.760000000     2.523000000
C     1.300000000    -2.800000000     4.326000000
H     1.752000000    -1.954000000     4.837000000
C     1.958000000    -3.959000000     4.124000000
O     3.322000000    -4.074000000     4.511000000
C     1.407000000    -5.004000000     3.367000000
H     2.136000000    -5.732000000     3.019000000
C     0.125000000    -4.941000000     2.802000000
O    -0.215000000    -5.772000000     1.716000000
C    -1.461000000    -6.301000000     1.538000000
C    -2.095000000    -5.972000000     0.344000000
H    -1.650000000    -5.257000000    -0.344000000
C    -2.074000000    -7.096000000     2.469000000
H    -1.505000000    -7.377000000     3.351000000
C    -3.326000000    -7.610000000     2.211000000
H    -3.783000000    -8.110000000     3.062000000
C    -3.953000000    -7.331000000     1.020000000
H    -4.865000000    -7.791000000     0.649000000
C    -3.321000000    -6.490000000     0.113000000
O    -4.055000000    -6.201000000    -1.056000000
C    -4.003000000    -4.958000000    -1.606000000
C    -3.837000000    -4.917000000    -3.019000000
H    -3.678000000    -5.816000000    -3.609000000
C    -3.620000000    -3.715000000    -3.624000000
O    -3.160000000    -3.745000000    -4.989000000
C    -2.677000000    -2.661000000    -5.610000000
C    -1.359000000    -2.294000000    -5.372000000
H    -0.820000000    -2.769000000    -4.556000000
C    -3.283000000    -2.162000000    -6.746000000
H    -4.208000000    -2.627000000    -7.076000000
C    -2.680000000    -1.152000000    -7.481000000
H    -3.328000000    -0.746000000    -8.254000000
C    -1.356000000    -0.749000000    -7.246000000
H    -0.794000000    -0.097000000    -7.910000000
C    -0.727000000    -1.295000000    -6.128000000
O     0.552000000    -0.937000000    -5.793000000
C     0.951000000     0.183000000    -5.088000000
C     2.230000000     0.637000000    -5.338000000
H     2.838000000     0.077000000    -6.043000000
C     2.717000000     1.856000000    -4.830000000
O     4.027000000     2.114000000    -5.122000000
C     4.933000000     2.815000000    -4.321000000
C     5.422000000     2.132000000    -3.219000000
H     5.197000000     1.075000000    -3.096000000
C     5.248000000     4.170000000    -4.465000000
H     4.771000000     4.714000000    -5.275000000
C     6.121000000     4.813000000    -3.594000000
H     6.285000000     5.865000000    -3.809000000
C     6.637000000     4.177000000    -2.515000000
H     7.348000000     4.609000000    -1.816000000
C     6.239000000     2.830000000    -2.348000000
O     6.806000000     2.222000000    -1.288000000
C     6.106000000     1.823000000    -0.181000000
C     6.444000000     0.629000000     0.510000000
H     7.318000000     0.058000000     0.205000000
C     5.629000000     0.119000000     1.461000000
O     6.063000000    -1.025000000     2.039000000
C     5.597000000    -1.520000000     3.199000000
C     5.784000000    -0.788000000     4.369000000
H     6.599000000    -0.070000000     4.318000000
C     5.245000000    -1.140000000     5.612000000
H     5.450000000    -0.650000000     6.560000000
C     4.370000000    -2.248000000     5.675000000
H     4.023000000    -2.578000000     6.651000000
C     4.192000000    -3.015000000     4.522000000
C     4.734000000    -2.595000000     3.335000000
H     4.530000000    -3.112000000     2.401000000
C     1.671000000    -2.060000000     0.726000000
H     2.572000000    -2.400000000     1.230000000
C     1.117000000    -0.755000000     1.011000000
H     1.543000000    -0.149000000     1.806000000
C     0.057000000    -0.252000000     0.278000000
H    -0.295000000     0.718000000     0.419000000
C    -0.524000000    -1.043000000    -0.661000000
H    -1.384000000    -0.737000000    -1.251000000
C     0.035000000    -2.282000000    -1.014000000
H    -0.282000000    -2.843000000    -1.889000000
C     1.075000000    -2.822000000    -0.318000000
C     1.632000000    -4.206000000    -0.688000000
O     1.294000000    -4.785000000    -1.715000000
O     2.462000000    -4.685000000     0.065000000
O     2.977000000    -3.867000000    -3.918000000
H     2.399000000    -4.363000000    -3.338000000
H     2.561000000    -3.926000000    -4.778000000
O     6.058000000    -6.040000000    -3.522000000
H     5.580000000    -6.621000000    -4.114000000
H     5.482000000    -5.944000000    -2.764000000
O     1.654000000    -4.159000000    -6.359000000
H     0.984000000    -4.762000000    -6.680000000
H     2.459000000    -4.442000000    -6.792000000
O     2.665000000   -10.211000000    -0.365000000
H     3.600000000   -10.253000000    -0.166000000
H     2.625000000   -10.189000000    -1.321000000
O     3.360000000    -9.643000000    -3.029000000
H     3.388000000    -8.687000000    -3.081000000
H     4.209000000    -9.925000000    -3.371000000
O     2.989000000    -6.782000000    -2.246000000
H     2.497000000    -5.961000000    -2.252000000
H     3.014000000    -7.039000000    -1.324000000
O     4.524000000    -2.251000000    -2.096000000
H     3.925000000    -2.870000000    -2.514000000
H     3.988000000    -1.476000000    -1.926000000
O     0.594000000    -8.597000000     0.674000000
H     1.435000000    -8.979000000     0.421000000
H     0.807000000    -7.700000000     0.934000000
O     5.582000000    -9.339000000     0.233000000
H     6.444000000    -8.946000000     0.098000000
H     4.973000000    -8.728000000    -0.182000000
O    -0.654000000    -6.090000000    -3.118000000
H    -0.110000000    -5.485000000    -2.613000000
H    -0.772000000    -6.845000000    -2.542000000
O    -0.774000000    -8.681000000    -1.832000000
H    -0.214000000    -8.728000000    -1.057000000
H    -0.681000000    -9.538000000    -2.247000000
O     2.543000000    -8.107000000     2.967000000
H     1.816000000    -8.220000000     3.579000000
H     3.328000000    -8.176000000     3.511000000
O     1.594000000    -7.028000000    -4.592000000
H     0.758000000    -6.765000000    -4.207000000
H     2.246000000    -6.793000000    -3.932000000
O     6.130000000    -5.554000000     1.710000000
H     5.928000000    -4.806000000     1.147000000
H     5.798000000    -6.312000000     1.229000000
O     3.614000000    -6.989000000     0.361000000
H     3.262000000    -7.312000000     1.190000000
H     3.104000000    -6.200000000     0.175000000
O     2.755000000    -0.305000000    -2.050000000
H     2.312000000    -0.559000000    -1.241000000
H     2.077000000    -0.363000000    -2.723000000
O     5.334000000    -2.006000000    -4.669000000
H     5.194000000    -2.813000000    -5.165000000
H     5.143000000    -2.246000000    -3.763000000
O     4.904000000    -3.862000000    -0.064000000
H     4.019000000    -4.214000000     0.034000000
H     4.840000000    -3.257000000    -0.803000000
O    -1.555000000    -5.893000000    -5.756000000
H    -2.115000000    -5.135000000    -5.925000000
H    -1.170000000    -5.720000000    -4.897000000
