215
-1444.33294
C     4.066000000     2.694000000     0.811000000
H     3.144000000     2.844000000     1.368000000
C     3.994000000     2.662000000    -0.553000000
C     5.119000000     2.177000000    -1.271000000
H     5.153000000     2.100000000    -2.354000000
C     2.710000000     3.009000000    -1.305000000
O     2.147000000     4.253000000    -0.968000000
H     1.907000000     2.325000000    -0.992000000
O     2.974000000     3.078000000    -2.658000000
C     2.029000000     2.483000000    -3.479000000
C     2.273000000     1.122000000    -3.731000000
H     3.185000000     0.592000000    -3.468000000
C     1.372000000     0.314000000    -4.369000000
O     1.605000000    -1.034000000    -4.517000000
C     0.098000000     0.892000000    -4.752000000
C    -1.020000000     0.034000000    -5.325000000
H    -1.714000000     0.637000000    -5.916000000
C    -1.838000000    -0.536000000    -4.252000000
C    -2.961000000     0.152000000    -3.800000000
H    -3.209000000     1.152000000    -4.146000000
H    -0.543000000    -0.776000000    -5.881000000
C    -0.130000000     2.257000000    -4.502000000
H    -1.055000000     2.733000000    -4.817000000
C     0.779000000     3.026000000    -3.762000000
C     0.466000000     4.419000000    -3.402000000
H    -0.216000000     4.730000000    -4.196000000
H     1.408000000     4.957000000    -3.533000000
C    -0.061000000     4.474000000    -1.958000000
C    -1.463000000     4.322000000    -1.729000000
H    -2.102000000     4.198000000    -2.600000000
C     0.810000000     4.371000000    -0.846000000
C     0.287000000     4.233000000     0.421000000
H     0.988000000     4.164000000     1.249000000
C    -1.068000000     4.490000000     0.581000000
O    -1.496000000     4.324000000     1.825000000
C    -1.838000000     2.998000000     2.244000000
C    -1.203000000     2.476000000     3.545000000
C    -1.774000000     1.375000000     4.235000000
H    -2.711000000     1.059000000     3.784000000
C    -0.019000000     3.061000000     4.093000000
H     0.458000000     3.861000000     3.532000000
O    -3.248000000     2.847000000     2.155000000
H    -1.401000000     2.275000000     1.539000000
C    -1.987000000     4.503000000    -0.456000000
C    -3.470000000     4.518000000    -0.310000000
H    -4.011000000     4.890000000    -1.182000000
H    -3.779000000     5.075000000     0.577000000
C    -3.895000000     3.045000000    -0.178000000
C    -4.313000000     2.382000000    -1.343000000
H    -4.198000000     2.904000000    -2.289000000
C    -3.865000000     2.373000000     1.014000000
C    -4.342000000     1.048000000     1.071000000
H    -4.199000000     0.570000000     2.037000000
C    -4.853000000     0.439000000    -0.028000000
O    -5.068000000    -0.901000000     0.089000000
C    -4.041000000    -1.851000000    -0.139000000
C    -4.062000000    -2.955000000     0.902000000
C    -4.646000000    -2.773000000     2.120000000
H    -5.280000000    -1.908000000     2.300000000
C    -3.317000000    -4.163000000     0.770000000
H    -2.713000000    -4.213000000    -0.132000000
O    -4.181000000    -2.479000000    -1.442000000
H    -3.098000000    -1.284000000    -0.146000000
C    -4.818000000     1.086000000    -1.245000000
C    -5.178000000     0.237000000    -2.540000000
H    -5.612000000     0.915000000    -3.278000000
H    -5.965000000    -0.479000000    -2.293000000
C    -3.836000000    -0.523000000    -2.928000000
C    -3.490000000    -1.802000000    -2.442000000
C    -2.311000000    -2.439000000    -2.815000000
H    -2.139000000    -3.359000000    -2.261000000
C    -1.440000000    -1.852000000    -3.773000000
O    -0.265000000    -2.454000000    -4.055000000
C     0.999000000    -1.968000000    -3.565000000
H     0.813000000    -1.379000000    -2.656000000
C     1.915000000    -3.096000000    -3.093000000
C     3.248000000    -2.784000000    -2.846000000
H     3.647000000    -1.788000000    -3.022000000
C     1.408000000    -4.335000000    -2.719000000
H     0.433000000    -4.657000000    -3.077000000
C     2.213000000    -5.228000000    -1.927000000
O     1.638000000    -6.360000000    -1.280000000
C     3.569000000    -4.936000000    -1.767000000
H     4.178000000    -5.636000000    -1.201000000
C     4.088000000    -3.744000000    -2.244000000
O     5.324000000    -3.387000000    -1.798000000
C     6.049000000    -2.330000000    -2.310000000
C     6.229000000    -1.146000000    -1.562000000
H     5.792000000    -1.079000000    -0.569000000
C     6.804000000    -2.482000000    -3.486000000
H     6.756000000    -3.479000000    -3.916000000
C     7.643000000    -1.473000000    -3.939000000
H     8.332000000    -1.568000000    -4.775000000
C     7.720000000    -0.266000000    -3.205000000
H     8.376000000     0.557000000    -3.476000000
C     7.048000000    -0.096000000    -2.021000000
O     7.255000000     1.209000000    -1.352000000
C     6.223000000     1.744000000    -0.590000000
C     6.334000000     1.883000000     0.763000000
H     7.247000000     1.633000000     1.297000000
C     5.241000000     2.351000000     1.493000000
O     5.342000000     2.391000000     2.857000000
C     4.592000000     3.253000000     3.602000000
C     3.710000000     2.685000000     4.473000000
H     3.768000000     1.614000000     4.651000000
C     4.563000000     4.635000000     3.272000000
H     5.237000000     5.117000000     2.569000000
C     3.666000000     5.466000000     3.933000000
H     3.676000000     6.552000000     3.884000000
C     2.701000000     4.911000000     4.711000000
H     1.993000000     5.581000000     5.191000000
C     2.697000000     3.554000000     5.022000000
O     1.712000000     3.080000000     5.859000000
C     0.471000000     2.659000000     5.334000000
C    -0.130000000     1.543000000     5.930000000
H     0.297000000     1.226000000     6.879000000
C    -1.179000000     0.829000000     5.394000000
O    -1.742000000    -0.230000000     6.163000000
C    -3.036000000    -0.688000000     6.093000000
C    -3.253000000    -1.878000000     5.408000000
H    -2.423000000    -2.506000000     5.092000000
C    -4.093000000     0.076000000     6.641000000
H    -3.917000000     0.935000000     7.284000000
C    -5.449000000    -0.292000000     6.349000000
H    -6.313000000     0.201000000     6.786000000
C    -5.657000000    -1.475000000     5.583000000
H    -6.645000000    -1.922000000     5.512000000
C    -4.562000000    -2.187000000     5.063000000
O    -4.854000000    -3.460000000     4.472000000
C    -4.377000000    -3.689000000     3.186000000
C    -3.670000000    -4.884000000     3.075000000
H    -3.425000000    -5.567000000     3.885000000
C    -3.020000000    -5.023000000     1.819000000
O    -2.097000000    -6.009000000     1.557000000
C    -1.591000000    -6.426000000     0.377000000
C    -2.464000000    -6.909000000    -0.608000000
H    -3.524000000    -6.960000000    -0.372000000
C    -1.971000000    -7.224000000    -1.872000000
H    -2.686000000    -7.494000000    -2.645000000
C    -0.609000000    -6.991000000    -2.148000000
H    -0.266000000    -7.150000000    -3.167000000
C     0.268000000    -6.504000000    -1.120000000
C    -0.244000000    -6.313000000     0.136000000
H     0.523000000    -6.040000000     0.856000000
C     0.902000000    -0.245000000     2.278000000
H     0.566000000    -0.330000000     3.308000000
C     0.096000000     0.123000000     1.250000000
H    -0.955000000     0.298000000     1.469000000
C     0.527000000     0.192000000    -0.045000000
H    -0.220000000     0.459000000    -0.781000000
C     1.843000000    -0.187000000    -0.321000000
H     2.318000000    -0.139000000    -1.298000000
C     2.697000000    -0.595000000     0.725000000
H     3.741000000    -0.747000000     0.464000000
C     2.276000000    -0.522000000     2.060000000
C     3.337000000    -0.813000000     3.169000000
O     4.486000000    -1.068000000     2.890000000
O     2.916000000    -1.061000000     4.268000000
O    -0.139000000    -6.248000000     3.981000000
H    -0.775000000    -5.843000000     3.391000000
H     0.653000000    -5.719000000     3.879000000
O     5.384000000    -2.780000000     1.195000000
H     5.260000000    -2.024000000     1.769000000
H     4.867000000    -3.476000000     1.601000000
O     6.094000000    -5.224000000     6.654000000
H     6.232000000    -4.519000000     7.287000000
H     5.142000000    -5.315000000     6.601000000
O     4.824000000    -3.686000000     4.113000000
H     5.153000000    -4.090000000     4.916000000
H     4.802000000    -2.749000000     4.307000000
O     2.297000000    -5.034000000     3.812000000
H     2.941000000    -4.360000000     3.595000000
H     2.655000000    -5.838000000     3.435000000
O     0.593000000    -2.467000000     8.378000000
H     0.061000000    -1.673000000     8.330000000
H     0.852000000    -2.638000000     7.472000000
O     8.167000000    -4.878000000     2.832000000
H     8.145000000    -4.029000000     3.275000000
H     9.075000000    -5.168000000     2.914000000
O     8.739000000    -0.014000000     4.273000000
H     8.908000000     0.869000000     3.944000000
H     7.792000000    -0.040000000     4.414000000
O     3.805000000     1.314000000     7.797000000
H     4.111000000     1.448000000     8.694000000
H     3.197000000     2.036000000     7.642000000
O     7.485000000    -4.249000000     0.127000000
H     7.778000000    -4.487000000     1.006000000
H     6.633000000    -3.836000000     0.262000000
O     5.456000000    -3.152000000     8.691000000
H     5.287000000    -2.535000000     7.979000000
H     4.586000000    -3.431000000     8.978000000
O    -0.801000000    -4.569000000     6.035000000
H    -0.251000000    -5.282000000     5.711000000
H    -0.378000000    -3.774000000     5.711000000
O     5.877000000     0.331000000     4.753000000
H     5.254000000    -0.394000000     4.802000000
H     5.549000000     0.882000000     4.042000000
O     6.797000000     1.485000000     7.129000000
H     5.865000000     1.616000000     7.305000000
H     6.820000000     1.021000000     6.292000000
O     3.537000000    -5.418000000     6.329000000
H     3.011000000    -6.064000000     6.801000000
H     3.059000000    -5.270000000     5.513000000
O     4.158000000    -1.402000000     6.692000000
H     4.172000000    -0.535000000     7.097000000
H     3.614000000    -1.293000000     5.912000000
O     1.684000000    -2.525000000     5.849000000
H     2.050000000    -3.390000000     5.663000000
H     2.014000000    -1.968000000     5.144000000
O     3.975000000    -7.005000000     2.750000000
H     3.753000000    -7.924000000     2.599000000
H     4.564000000    -7.023000000     3.504000000
O     8.495000000    -2.909000000     4.810000000
H     8.051000000    -2.795000000     5.651000000
H     8.696000000    -2.018000000     4.523000000
