215
-1453.10872
C     3.593000000     2.426000000     0.423000000
H     2.798000000     2.892000000     1.000000000
C     3.706000000     2.505000000    -0.966000000
C     4.760000000     1.949000000    -1.682000000
H     4.810000000     1.780000000    -2.755000000
C     2.423000000     3.018000000    -1.689000000
O     2.049000000     4.309000000    -1.232000000
H     1.613000000     2.329000000    -1.407000000
O     2.585000000     2.913000000    -3.108000000
C     1.667000000     2.207000000    -3.771000000
C     1.925000000     0.872000000    -4.104000000
H     2.813000000     0.293000000    -3.866000000
C     0.907000000     0.075000000    -4.649000000
O     1.158000000    -1.217000000    -4.895000000
C    -0.393000000     0.626000000    -4.825000000
C    -1.466000000    -0.179000000    -5.451000000
H    -2.019000000     0.381000000    -6.209000000
C    -2.276000000    -0.861000000    -4.311000000
C    -3.348000000    -0.130000000    -3.727000000
H    -3.678000000     0.829000000    -4.118000000
H    -1.033000000    -0.965000000    -6.073000000
C    -0.635000000     1.953000000    -4.512000000
H    -1.633000000     2.354000000    -4.668000000
C     0.373000000     2.716000000    -3.884000000
C     0.032000000     4.152000000    -3.484000000
H    -0.757000000     4.441000000    -4.181000000
H     0.926000000     4.750000000    -3.674000000
C    -0.275000000     4.404000000    -2.091000000
C    -1.575000000     4.377000000    -1.760000000
H    -2.375000000     4.299000000    -2.492000000
C     0.708000000     4.525000000    -1.122000000
C     0.320000000     4.744000000     0.184000000
H     1.050000000     4.733000000     0.989000000
C    -1.050000000     4.603000000     0.565000000
O    -1.355000000     4.593000000     1.933000000
C    -1.862000000     3.299000000     2.467000000
C    -1.200000000     3.044000000     3.835000000
C    -1.905000000     2.180000000     4.695000000
H    -2.795000000     1.699000000     4.298000000
C     0.053000000     3.543000000     4.205000000
H     0.667000000     4.248000000     3.651000000
O    -3.363000000     3.178000000     2.442000000
H    -1.351000000     2.591000000     1.798000000
C    -1.995000000     4.426000000    -0.449000000
C    -3.515000000     4.457000000    -0.180000000
H    -3.961000000     4.932000000    -1.056000000
H    -3.632000000     5.143000000     0.662000000
C    -3.991000000     3.048000000     0.039000000
C    -4.380000000     2.241000000    -1.081000000
H    -4.398000000     2.750000000    -2.041000000
C    -3.980000000     2.482000000     1.354000000
C    -4.316000000     1.163000000     1.496000000
H    -4.311000000     0.675000000     2.468000000
C    -4.721000000     0.387000000     0.380000000
O    -4.893000000    -0.937000000     0.521000000
C    -3.726000000    -1.691000000     0.169000000
C    -3.306000000    -2.636000000     1.314000000
C    -3.843000000    -2.586000000     2.599000000
H    -4.751000000    -2.007000000     2.741000000
C    -2.261000000    -3.534000000     1.084000000
H    -1.953000000    -3.616000000     0.045000000
O    -3.974000000    -2.443000000    -1.018000000
H    -2.926000000    -0.954000000     0.005000000
C    -4.703000000     0.885000000    -0.930000000
C    -5.160000000     0.022000000    -2.097000000
H    -5.649000000     0.666000000    -2.830000000
H    -5.891000000    -0.662000000    -1.660000000
C    -4.038000000    -0.737000000    -2.706000000
C    -3.549000000    -1.921000000    -2.199000000
C    -2.488000000    -2.625000000    -2.789000000
H    -2.157000000    -3.537000000    -2.299000000
C    -1.822000000    -2.053000000    -3.869000000
O    -0.723000000    -2.624000000    -4.409000000
C     0.580000000    -2.179000000    -3.946000000
H     0.549000000    -1.753000000    -2.932000000
C     1.541000000    -3.305000000    -3.656000000
C     2.917000000    -2.996000000    -3.526000000
H     3.222000000    -1.973000000    -3.732000000
C     1.022000000    -4.508000000    -3.239000000
H    -0.037000000    -4.750000000    -3.265000000
C     1.869000000    -5.500000000    -2.778000000
O     1.249000000    -6.717000000    -2.397000000
C     3.274000000    -5.233000000    -2.616000000
H     3.938000000    -5.961000000    -2.157000000
C     3.719000000    -3.955000000    -2.925000000
O     5.032000000    -3.647000000    -2.669000000
C     5.630000000    -2.477000000    -2.987000000
C     5.818000000    -1.433000000    -2.103000000
H     5.461000000    -1.442000000    -1.076000000
C     6.312000000    -2.402000000    -4.200000000
H     6.207000000    -3.207000000    -4.923000000
C     7.079000000    -1.280000000    -4.537000000
H     7.539000000    -1.263000000    -5.521000000
C     7.167000000    -0.228000000    -3.633000000
H     7.822000000     0.604000000    -3.880000000
C     6.604000000    -0.312000000    -2.398000000
O     6.849000000     0.687000000    -1.478000000
C     5.714000000     1.261000000    -0.921000000
C     5.720000000     1.209000000     0.450000000
H     6.578000000     0.884000000     1.034000000
C     4.725000000     1.937000000     1.106000000
O     4.590000000     1.739000000     2.489000000
C     4.390000000     2.813000000     3.313000000
C     3.203000000     2.821000000     4.097000000
H     2.503000000     2.021000000     3.866000000
C     5.267000000     3.906000000     3.507000000
H     6.168000000     4.037000000     2.913000000
C     5.158000000     4.739000000     4.594000000
H     5.891000000     5.475000000     4.915000000
C     3.973000000     4.678000000     5.348000000
H     3.835000000     5.388000000     6.160000000
C     3.005000000     3.719000000     5.139000000
O     1.815000000     3.644000000     5.832000000
C     0.572000000     3.159000000     5.394000000
C    -0.085000000     2.298000000     6.256000000
H     0.481000000     2.006000000     7.137000000
C    -1.266000000     1.796000000     5.935000000
O    -1.731000000     0.765000000     6.782000000
C    -2.856000000     0.018000000     6.484000000
C    -2.760000000    -1.198000000     5.728000000
H    -1.823000000    -1.655000000     5.419000000
C    -4.115000000     0.547000000     6.764000000
H    -4.065000000     1.492000000     7.298000000
C    -5.317000000    -0.148000000     6.455000000
H    -6.300000000     0.270000000     6.652000000
C    -5.144000000    -1.368000000     5.749000000
H    -6.028000000    -1.900000000     5.408000000
C    -3.902000000    -1.969000000     5.448000000
O    -3.834000000    -3.246000000     4.878000000
C    -3.316000000    -3.338000000     3.659000000
C    -2.171000000    -4.170000000     3.421000000
H    -1.836000000    -4.846000000     4.204000000
C    -1.653000000    -4.262000000     2.092000000
O    -0.652000000    -5.224000000     1.811000000
C    -0.701000000    -6.021000000     0.716000000
C    -1.797000000    -6.793000000     0.436000000
H    -2.540000000    -6.807000000     1.230000000
C    -1.902000000    -7.570000000    -0.723000000
H    -2.772000000    -8.213000000    -0.834000000
C    -0.822000000    -7.576000000    -1.625000000
H    -0.809000000    -8.268000000    -2.464000000
C     0.226000000    -6.704000000    -1.508000000
C     0.246000000    -5.929000000    -0.307000000
H     1.137000000    -5.311000000    -0.230000000
C     0.568000000    -0.330000000     2.880000000
H     0.134000000    -0.119000000     3.854000000
C    -0.194000000     0.134000000     1.867000000
H    -1.199000000     0.504000000     2.050000000
C     0.226000000     0.058000000     0.539000000
H    -0.311000000     0.464000000    -0.343000000
C     1.445000000    -0.508000000     0.244000000
H     1.762000000    -0.708000000    -0.776000000
C     2.250000000    -1.005000000     1.315000000
H     3.199000000    -1.494000000     1.112000000
C     1.833000000    -0.844000000     2.633000000
C     2.690000000    -1.208000000     3.814000000
O     3.763000000    -1.730000000     3.633000000
O     2.284000000    -0.969000000     4.912000000
O     5.233000000    -3.097000000     1.786000000
H     4.522000000    -3.700000000     1.573000000
H     4.886000000    -2.558000000     2.498000000
O     3.291000000    -3.046000000     9.317000000
H     3.750000000    -3.877000000     9.440000000
H     3.806000000    -2.583000000     8.657000000
O     6.403000000    -5.484000000     4.017000000
H     6.464000000    -4.933000000     3.236000000
H     5.774000000    -5.032000000     4.580000000
O     7.060000000    -3.869000000     8.049000000
H     6.729000000    -3.717000000     8.934000000
H     6.402000000    -4.432000000     7.641000000
O     4.668000000    -3.547000000     5.157000000
H     4.627000000    -3.184000000     6.041000000
H     4.313000000    -2.856000000     4.597000000
O     3.320000000    -4.981000000     2.127000000
H     3.906000000    -5.254000000     2.833000000
H     3.125000000    -5.788000000     1.652000000
O     0.628000000    -3.540000000     8.241000000
H     0.386000000    -2.674000000     7.913000000
H     1.520000000    -3.430000000     8.571000000
O     0.557000000    -0.850000000     7.076000000
H     1.047000000    -1.031000000     6.274000000
H    -0.232000000    -0.399000000     6.777000000
O     8.444000000    -0.166000000     4.178000000
H     8.632000000     0.768000000     4.086000000
H     7.489000000    -0.214000000     4.224000000
O     4.651000000     1.877000000     6.863000000
H     4.504000000     2.814000000     6.730000000
H     5.594000000     1.764000000     6.746000000
O     7.509000000    -3.649000000     0.599000000
H     8.049000000    -3.830000000     1.369000000
H     6.666000000    -3.371000000     0.958000000
O     5.376000000    -0.683000000     9.416000000
H     5.888000000    -0.535000000     8.620000000
H     4.748000000     0.039000000     9.435000000
O     0.482000000    -5.537000000     6.199000000
H     0.674000000    -4.859000000     6.846000000
H     1.031000000    -5.313000000     5.447000000
O     5.716000000    -0.047000000     4.669000000
H     5.080000000    -0.666000000     4.311000000
H     5.440000000     0.804000000     4.329000000
O     7.113000000    -0.708000000     7.250000000
H     6.551000000    -0.468000000     6.513000000
H     7.142000000    -1.664000000     7.228000000
O     3.530000000    -6.898000000     6.357000000
H     2.962000000    -7.622000000     6.621000000
H     3.156000000    -6.589000000     5.532000000
O     4.624000000    -5.440000000     8.316000000
H     4.152000000    -5.614000000     7.501000000
H     4.830000000    -6.308000000     8.663000000
O     3.839000000    -1.064000000     7.058000000
H     4.128000000    -0.153000000     7.003000000
H     3.155000000    -1.139000000     6.392000000
O     1.779000000    -4.237000000     4.316000000
H     1.901000000    -4.361000000     3.375000000
H     1.924000000    -3.301000000     4.456000000
