215
-1441.43058
C     4.496000000     3.535000000     1.594000000
H     3.817000000     4.212000000     2.106000000
C     4.149000000     3.178000000     0.296000000
C     5.040000000     2.293000000    -0.335000000
H     4.849000000     1.925000000    -1.340000000
C     2.942000000     3.664000000    -0.427000000
O     2.343000000     4.906000000     0.064000000
H     2.206000000     2.847000000    -0.423000000
O     3.176000000     3.751000000    -1.870000000
C     2.268000000     3.166000000    -2.692000000
C     2.455000000     1.871000000    -3.182000000
H     3.416000000     1.375000000    -3.072000000
C     1.416000000     1.249000000    -3.821000000
O     1.654000000    -0.038000000    -4.312000000
C     0.310000000     1.952000000    -4.202000000
C    -0.819000000     1.456000000    -5.180000000
H    -1.373000000     2.289000000    -5.617000000
C    -1.793000000     0.465000000    -4.568000000
C    -2.993000000     0.963000000    -4.074000000
H    -3.251000000     2.018000000    -4.126000000
H    -0.292000000     1.027000000    -6.035000000
C     0.057000000     3.225000000    -3.719000000
H    -0.875000000     3.778000000    -3.803000000
C     1.018000000     3.822000000    -2.864000000
C     0.741000000     5.210000000    -2.286000000
H    -0.043000000     5.723000000    -2.848000000
H     1.630000000     5.827000000    -2.438000000
C     0.161000000     5.030000000    -0.883000000
C    -1.218000000     4.941000000    -0.737000000
H    -1.781000000     5.043000000    -1.661000000
C     0.981000000     4.858000000     0.253000000
C     0.398000000     4.657000000     1.496000000
H     1.040000000     4.276000000     2.286000000
C    -1.000000000     4.492000000     1.613000000
O    -1.491000000     3.889000000     2.665000000
C    -1.772000000     2.439000000     2.567000000
C    -1.143000000     1.660000000     3.793000000
C    -1.864000000     0.591000000     4.448000000
H    -2.812000000     0.311000000     3.995000000
C     0.212000000     1.906000000     4.186000000
H     0.797000000     2.707000000     3.743000000
O    -3.198000000     2.307000000     2.591000000
H    -1.328000000     2.072000000     1.630000000
C    -1.778000000     4.546000000     0.471000000
C    -3.287000000     4.384000000     0.529000000
H    -3.716000000     5.040000000    -0.233000000
H    -3.735000000     4.746000000     1.457000000
C    -3.763000000     2.932000000     0.332000000
C    -4.171000000     2.481000000    -0.959000000
H    -4.139000000     3.093000000    -1.857000000
C    -3.811000000     2.047000000     1.408000000
C    -4.354000000     0.783000000     1.211000000
H    -4.179000000     0.109000000     2.046000000
C    -4.641000000     0.353000000    -0.035000000
O    -4.907000000    -1.032000000    -0.240000000
C    -3.915000000    -1.879000000    -0.867000000
C    -3.713000000    -3.228000000    -0.209000000
C    -3.761000000    -3.283000000     1.174000000
H    -3.960000000    -2.331000000     1.659000000
C    -3.601000000    -4.375000000    -0.959000000
H    -3.640000000    -4.244000000    -2.038000000
O    -4.223000000    -2.043000000    -2.289000000
H    -2.928000000    -1.397000000    -0.920000000
C    -4.565000000     1.150000000    -1.177000000
C    -5.009000000     0.727000000    -2.541000000
H    -5.427000000     1.546000000    -3.130000000
H    -5.874000000     0.072000000    -2.426000000
C    -3.830000000     0.132000000    -3.338000000
C    -3.570000000    -1.249000000    -3.243000000
C    -2.426000000    -1.802000000    -3.830000000
H    -2.224000000    -2.849000000    -3.621000000
C    -1.455000000    -0.957000000    -4.525000000
O    -0.199000000    -1.489000000    -4.705000000
C     0.803000000    -1.128000000    -3.773000000
H     0.350000000    -0.657000000    -2.888000000
C     1.639000000    -2.281000000    -3.368000000
C     2.710000000    -1.999000000    -2.560000000
H     3.056000000    -0.989000000    -2.353000000
C     1.153000000    -3.592000000    -3.509000000
H     0.233000000    -3.836000000    -4.034000000
C     1.690000000    -4.582000000    -2.615000000
O     1.180000000    -5.860000000    -2.537000000
C     2.802000000    -4.303000000    -1.856000000
H     3.189000000    -5.052000000    -1.170000000
C     3.350000000    -2.990000000    -1.853000000
O     4.480000000    -2.638000000    -1.176000000
C     5.499000000    -1.834000000    -1.595000000
C     5.838000000    -0.758000000    -0.697000000
H     5.254000000    -0.629000000     0.210000000
C     6.179000000    -2.082000000    -2.808000000
H     6.147000000    -3.031000000    -3.336000000
C     7.131000000    -1.163000000    -3.171000000
H     7.689000000    -1.233000000    -4.102000000
C     7.483000000    -0.140000000    -2.298000000
H     8.257000000     0.550000000    -2.625000000
C     6.861000000     0.024000000    -1.101000000
O     7.151000000     1.121000000    -0.376000000
C     6.218000000     1.899000000     0.267000000
C     6.479000000     2.291000000     1.539000000
H     7.389000000     1.881000000     1.968000000
C     5.578000000     3.109000000     2.277000000
O     5.755000000     3.396000000     3.599000000
C     4.717000000     3.336000000     4.526000000
C     3.805000000     2.281000000     4.530000000
H     3.923000000     1.454000000     3.833000000
C     4.695000000     4.262000000     5.674000000
H     5.502000000     4.990000000     5.707000000
C     3.698000000     4.126000000     6.633000000
H     3.678000000     4.827000000     7.464000000
C     2.755000000     3.093000000     6.562000000
H     1.995000000     3.012000000     7.334000000
C     2.822000000     2.183000000     5.517000000
O     2.025000000     1.055000000     5.586000000
C     0.739000000     1.064000000     5.222000000
C     0.006000000     0.063000000     5.850000000
H     0.471000000    -0.597000000     6.578000000
C    -1.331000000    -0.170000000     5.475000000
O    -1.980000000    -1.254000000     6.027000000
C    -3.087000000    -1.870000000     5.492000000
C    -2.801000000    -2.857000000     4.574000000
H    -1.812000000    -3.188000000     4.270000000
C    -4.358000000    -1.479000000     5.812000000
H    -4.572000000    -0.608000000     6.428000000
C    -5.453000000    -2.164000000     5.257000000
H    -6.470000000    -1.941000000     5.569000000
C    -5.212000000    -3.199000000     4.305000000
H    -6.080000000    -3.717000000     3.905000000
C    -3.881000000    -3.547000000     4.012000000
O    -3.679000000    -4.624000000     3.189000000
C    -3.583000000    -4.492000000     1.844000000
C    -3.475000000    -5.691000000     1.141000000
H    -3.547000000    -6.649000000     1.648000000
C    -3.504000000    -5.604000000    -0.224000000
O    -3.403000000    -6.729000000    -0.988000000
C    -2.463000000    -6.751000000    -2.021000000
C    -2.885000000    -7.144000000    -3.235000000
H    -3.914000000    -7.360000000    -3.512000000
C    -1.900000000    -7.126000000    -4.259000000
H    -2.155000000    -7.467000000    -5.260000000
C    -0.602000000    -6.650000000    -4.090000000
H     0.145000000    -6.844000000    -4.855000000
C    -0.170000000    -6.108000000    -2.856000000
C    -1.128000000    -6.279000000    -1.816000000
H    -0.815000000    -5.939000000    -0.832000000
C     0.028000000    -1.173000000     2.369000000
H    -0.562000000    -1.578000000     3.187000000
C    -0.649000000    -0.440000000     1.365000000
H    -1.734000000    -0.375000000     1.337000000
C     0.119000000     0.148000000     0.314000000
H    -0.310000000     0.873000000    -0.381000000
C     1.477000000     0.014000000     0.351000000
H     2.121000000     0.518000000    -0.365000000
C     2.083000000    -0.759000000     1.297000000
H     3.131000000    -1.033000000     1.208000000
C     1.424000000    -1.293000000     2.376000000
C     2.113000000    -2.205000000     3.368000000
O     3.329000000    -2.294000000     3.381000000
O     1.435000000    -2.817000000     4.166000000
O     0.200000000    -4.876000000     3.007000000
H     0.910000000    -5.168000000     2.437000000
H     0.536000000    -4.080000000     3.420000000
O     4.441000000    -3.687000000     1.337000000
H     4.414000000    -3.395000000     2.248000000
H     3.710000000    -3.233000000     0.918000000
O     4.881000000    -6.509000000     3.299000000
H     4.723000000    -5.622000000     3.621000000
H     4.949000000    -7.042000000     4.091000000
O    -1.937000000    -7.014000000     3.932000000
H    -1.609000000    -6.778000000     3.064000000
H    -1.495000000    -6.411000000     4.528000000
O     7.012000000    -0.792000000     6.504000000
H     6.716000000    -0.882000000     5.598000000
H     6.849000000     0.126000000     6.719000000
O     5.341000000    -2.770000000     7.753000000
H     5.957000000    -2.093000000     7.471000000
H     4.486000000    -2.339000000     7.732000000
O    -1.622000000    -2.472000000     8.461000000
H    -1.989000000    -3.356000000     8.424000000
H    -1.689000000    -2.147000000     7.563000000
O     7.706000000    -3.423000000     4.536000000
H     8.221000000    -3.020000000     3.837000000
H     6.936000000    -2.861000000     4.620000000
O     2.028000000    -6.097000000     1.594000000
H     2.641000000    -5.398000000     1.822000000
H     2.581000000    -6.792000000     1.236000000
O     0.981000000    -8.089000000     3.131000000
H     0.764000000    -8.737000000     2.462000000
H     1.134000000    -7.281000000     2.642000000
O     0.001000000    -5.599000000     5.557000000
H    -0.032000000    -5.286000000     4.653000000
H     0.385000000    -4.873000000     6.048000000
O     4.377000000    -7.261000000     0.747000000
H     4.587000000    -8.195000000     0.734000000
H     4.789000000    -6.935000000     1.547000000
O     7.659000000    -2.832000000     1.016000000
H     8.044000000    -2.631000000     0.163000000
H     6.991000000    -3.491000000     0.828000000
O     2.313000000    -1.603000000     9.586000000
H     2.881000000    -0.880000000     9.853000000
H     1.893000000    -1.294000000     8.783000000
O     1.566000000    -3.645000000     6.775000000
H     1.503000000    -3.407000000     5.850000000
H     2.328000000    -3.164000000     7.095000000
O     4.803000000    -4.241000000     4.707000000
H     4.221000000    -3.505000000     4.517000000
H     5.168000000    -4.042000000     5.569000000
O     5.736000000    -1.295000000     3.931000000
H     6.408000000    -1.025000000     3.306000000
H     4.993000000    -1.557000000     3.387000000
O     3.310000000    -1.435000000     6.096000000
H     2.763000000    -0.659000000     5.976000000
H     3.384000000    -1.814000000     5.220000000
O     5.941000000    -5.091000000    -0.307000000
H     6.329000000    -5.858000000     0.113000000
H     5.229000000    -4.831000000     0.278000000
