215
-1435.99584
C     4.759000000     1.873000000     1.513000000
H     4.571000000     2.921000000     1.733000000
C     4.392000000     1.267000000     0.306000000
C     4.636000000    -0.076000000     0.107000000
H     4.255000000    -0.581000000    -0.777000000
C     3.497000000     2.044000000    -0.653000000
O     3.254000000     3.484000000    -0.206000000
H     2.534000000     1.515000000    -0.600000000
O     4.041000000     2.054000000    -2.011000000
C     3.133000000     1.652000000    -3.000000000
C     2.906000000     0.301000000    -3.335000000
H     3.634000000    -0.410000000    -2.953000000
C     1.902000000    -0.029000000    -4.244000000
O     1.795000000    -1.355000000    -4.629000000
C     0.970000000     0.904000000    -4.695000000
C    -0.216000000     0.508000000    -5.637000000
H    -0.690000000     1.303000000    -6.216000000
C    -1.292000000    -0.061000000    -4.708000000
C    -2.347000000     0.834000000    -4.407000000
H    -2.375000000     1.822000000    -4.860000000
H     0.215000000    -0.223000000    -6.324000000
C     0.996000000     2.172000000    -4.118000000
H     0.348000000     2.912000000    -4.580000000
C     2.081000000     2.569000000    -3.304000000
C     2.174000000     3.978000000    -2.800000000
H     1.671000000     4.456000000    -3.644000000
H     3.198000000     4.356000000    -2.809000000
C     1.374000000     4.174000000    -1.503000000
C     0.067000000     4.642000000    -1.589000000
H    -0.362000000     4.740000000    -2.583000000
C     2.000000000     4.006000000    -0.264000000
C     1.311000000     4.224000000     0.837000000
H     1.883000000     4.206000000     1.761000000
C    -0.026000000     4.441000000     0.844000000
O    -0.605000000     4.536000000     2.080000000
C    -1.472000000     3.508000000     2.326000000
C    -1.263000000     2.933000000     3.689000000
C    -2.346000000     2.377000000     4.366000000
H    -3.370000000     2.552000000     4.045000000
C     0.035000000     3.028000000     4.179000000
H     0.912000000     3.275000000     3.587000000
O    -2.823000000     3.805000000     1.944000000
H    -1.279000000     2.752000000     1.551000000
C    -0.670000000     4.821000000    -0.372000000
C    -2.148000000     5.207000000    -0.516000000
H    -2.272000000     5.802000000    -1.424000000
H    -2.527000000     5.784000000     0.330000000
C    -3.079000000     3.941000000    -0.513000000
C    -3.439000000     3.381000000    -1.802000000
H    -3.126000000     3.866000000    -2.723000000
C    -3.394000000     3.331000000     0.707000000
C    -4.076000000     2.100000000     0.662000000
H    -4.049000000     1.565000000     1.607000000
C    -4.462000000     1.555000000    -0.600000000
O    -4.993000000     0.314000000    -0.684000000
C    -4.094000000    -0.802000000    -0.836000000
C    -4.130000000    -1.846000000     0.223000000
C    -4.727000000    -1.619000000     1.468000000
H    -5.268000000    -0.720000000     1.755000000
C    -3.678000000    -3.124000000    -0.048000000
H    -3.375000000    -3.362000000    -1.064000000
O    -4.274000000    -1.276000000    -2.183000000
H    -3.133000000    -0.287000000    -0.688000000
C    -4.208000000     2.256000000    -1.821000000
C    -4.451000000     1.592000000    -3.220000000
H    -4.402000000     2.441000000    -3.906000000
H    -5.491000000     1.278000000    -3.332000000
C    -3.408000000     0.472000000    -3.568000000
C    -3.414000000    -0.834000000    -3.120000000
C    -2.496000000    -1.777000000    -3.513000000
H    -2.478000000    -2.744000000    -3.016000000
C    -1.408000000    -1.413000000    -4.331000000
O    -0.382000000    -2.270000000    -4.633000000
C     0.877000000    -2.135000000    -3.838000000
H     0.645000000    -1.562000000    -2.929000000
C     1.527000000    -3.468000000    -3.403000000
C     2.932000000    -3.648000000    -3.330000000
H     3.616000000    -2.841000000    -3.578000000
C     0.673000000    -4.515000000    -3.059000000
H    -0.400000000    -4.446000000    -3.221000000
C     1.260000000    -5.699000000    -2.476000000
O     0.444000000    -6.689000000    -1.988000000
C     2.615000000    -5.908000000    -2.499000000
H     3.107000000    -6.734000000    -1.993000000
C     3.459000000    -4.902000000    -2.932000000
O     4.875000000    -4.990000000    -2.923000000
C     5.646000000    -3.979000000    -2.262000000
C     5.291000000    -3.614000000    -0.990000000
H     4.499000000    -4.144000000    -0.466000000
C     6.638000000    -3.343000000    -2.979000000
H     6.753000000    -3.541000000    -4.042000000
C     7.422000000    -2.392000000    -2.333000000
H     8.267000000    -2.049000000    -2.925000000
C     7.175000000    -2.043000000    -1.024000000
H     7.818000000    -1.304000000    -0.554000000
C     6.113000000    -2.644000000    -0.314000000
O     5.680000000    -2.130000000     0.929000000
C     5.264000000    -0.814000000     1.121000000
C     5.672000000    -0.264000000     2.301000000
H     6.131000000    -0.888000000     3.064000000
C     5.379000000     1.104000000     2.565000000
O     5.458000000     1.540000000     3.835000000
C     4.577000000     2.535000000     4.331000000
C     3.390000000     2.119000000     4.859000000
H     3.113000000     1.069000000     4.917000000
C     4.947000000     3.873000000     4.355000000
H     5.875000000     4.177000000     3.876000000
C     4.148000000     4.860000000     4.893000000
H     4.566000000     5.860000000     4.975000000
C     2.943000000     4.479000000     5.415000000
H     2.322000000     5.246000000     5.871000000
C     2.532000000     3.122000000     5.405000000
O     1.424000000     2.800000000     6.074000000
C     0.225000000     2.615000000     5.507000000
C    -0.796000000     1.984000000     6.229000000
H    -0.733000000     1.671000000     7.268000000
C    -2.152000000     1.942000000     5.673000000
O    -3.024000000     1.231000000     6.479000000
C    -4.084000000     0.580000000     5.858000000
C    -3.882000000    -0.482000000     4.999000000
H    -2.884000000    -0.796000000     4.705000000
C    -5.367000000     1.011000000     6.290000000
H    -5.420000000     1.938000000     6.855000000
C    -6.467000000     0.330000000     5.708000000
H    -7.488000000     0.683000000     5.825000000
C    -6.265000000    -0.728000000     4.817000000
H    -7.113000000    -1.305000000     4.456000000
C    -5.022000000    -1.141000000     4.493000000
O    -4.890000000    -2.367000000     3.878000000
C    -4.699000000    -2.615000000     2.496000000
C    -4.151000000    -3.881000000     2.236000000
H    -4.074000000    -4.605000000     3.044000000
C    -3.758000000    -4.143000000     0.934000000
O    -3.391000000    -5.426000000     0.695000000
C    -2.851000000    -6.003000000    -0.455000000
C    -3.673000000    -6.296000000    -1.532000000
H    -4.743000000    -6.160000000    -1.392000000
C    -3.125000000    -6.830000000    -2.725000000
H    -3.751000000    -7.181000000    -3.542000000
C    -1.755000000    -7.040000000    -2.876000000
H    -1.242000000    -7.443000000    -3.746000000
C    -0.907000000    -6.631000000    -1.798000000
C    -1.451000000    -6.103000000    -0.610000000
H    -0.758000000    -5.913000000     0.206000000
C     2.202000000    -1.124000000     2.530000000
H     2.753000000    -0.788000000     3.405000000
C     1.542000000    -0.150000000     1.778000000
H     1.699000000     0.892000000     2.042000000
C     0.722000000    -0.563000000     0.640000000
H     0.270000000     0.269000000     0.061000000
C     0.719000000    -1.951000000     0.231000000
H     0.040000000    -2.102000000    -0.604000000
C     1.376000000    -2.931000000     1.041000000
H     1.506000000    -3.947000000     0.678000000
C     2.063000000    -2.500000000     2.230000000
C     2.750000000    -3.532000000     3.107000000
O     2.643000000    -4.777000000     2.909000000
O     3.289000000    -3.148000000     4.116000000
O    -0.725000000    -0.474000000     3.535000000
H    -0.462000000    -1.224000000     3.003000000
H    -0.058000000     0.190000000     3.361000000
O    -1.783000000    -7.274000000     2.271000000
H    -2.099000000    -6.436000000     1.935000000
H    -0.920000000    -7.076000000     2.636000000
O     0.302000000    -1.392000000     6.050000000
H     0.096000000    -0.754000000     5.367000000
H    -0.547000000    -1.752000000     6.306000000
O     3.648000000    -1.384000000     6.047000000
H     2.787000000    -0.980000000     6.147000000
H     3.563000000    -1.942000000     5.273000000
O     5.893000000    -0.354000000     6.732000000
H     6.411000000    -1.088000000     7.062000000
H     5.067000000    -0.750000000     6.454000000
O     6.283000000    -2.947000000     7.584000000
H     7.172000000    -3.050000000     7.244000000
H     5.718000000    -3.235000000     6.867000000
O     2.621000000    -4.592000000     8.639000000
H     2.934000000    -5.370000000     8.177000000
H     2.330000000    -4.002000000     7.944000000
O     4.575000000    -9.216000000     2.434000000
H     5.145000000    -8.636000000     1.929000000
H     4.055000000    -8.626000000     2.979000000
O     4.060000000    -6.239000000     6.474000000
H     4.389000000    -5.392000000     6.172000000
H     4.844000000    -6.781000000     6.566000000
O     1.645000000    -3.779000000     6.234000000
H     2.295000000    -3.714000000     5.535000000
H     1.180000000    -2.943000000     6.207000000
O    -1.142000000    -4.682000000     4.765000000
H    -1.912000000    -5.240000000     4.871000000
H    -1.357000000    -3.882000000     5.245000000
O     0.521000000    -6.298000000     3.222000000
H     1.407000000    -5.947000000     3.310000000
H    -0.024000000    -5.705000000     3.739000000
O     7.567000000    -4.993000000     3.216000000
H     7.913000000    -4.548000000     2.443000000
H     8.342000000    -5.339000000     3.659000000
O     1.171000000    -8.413000000     1.384000000
H     0.944000000    -7.512000000     1.609000000
H     0.973000000    -8.916000000     2.174000000
O     3.429000000    -7.107000000     3.799000000
H     3.689000000    -6.937000000     4.705000000
H     3.355000000    -6.239000000     3.404000000
O     1.259000000    -6.619000000     6.153000000
H     2.200000000    -6.790000000     6.188000000
H     1.188000000    -5.665000000     6.171000000
O     3.640000000    -6.118000000     0.840000000
H     3.323000000    -5.545000000     1.538000000
H     2.995000000    -6.824000000     0.798000000
O     6.073000000    -7.077000000     1.759000000
H     6.624000000    -6.390000000     2.133000000
H     5.257000000    -6.632000000     1.531000000
O     5.540000000    -4.299000000     5.038000000
H     6.300000000    -4.300000000     4.455000000
H     4.864000000    -3.830000000     4.549000000
