215
-1449.23058
C     4.046000000     1.519000000     2.333000000
H     3.147000000     2.002000000     2.709000000
C     4.285000000     1.607000000     0.965000000
C     5.123000000     0.635000000     0.369000000
H     5.385000000     0.726000000    -0.682000000
C     3.503000000     2.511000000     0.040000000
O     3.175000000     3.743000000     0.741000000
H     2.572000000     1.967000000    -0.179000000
O     4.156000000     2.711000000    -1.204000000
C     3.299000000     2.638000000    -2.224000000
C     3.274000000     1.395000000    -2.772000000
H     4.005000000     0.633000000    -2.517000000
C     2.327000000     1.126000000    -3.721000000
O     2.325000000    -0.172000000    -4.222000000
C     1.396000000     2.012000000    -4.179000000
C     0.479000000     1.738000000    -5.313000000
H     0.263000000     2.642000000    -5.887000000
C    -0.758000000     1.154000000    -4.627000000
C    -1.881000000     1.936000000    -4.183000000
H    -1.852000000     3.022000000    -4.203000000
H     0.945000000     0.992000000    -5.960000000
C     1.265000000     3.242000000    -3.512000000
H     0.623000000     4.066000000    -3.814000000
C     2.243000000     3.532000000    -2.522000000
C     2.172000000     4.883000000    -1.698000000
H     1.834000000     5.711000000    -2.325000000
H     3.127000000     5.206000000    -1.279000000
C     1.307000000     4.732000000    -0.449000000
C     0.015000000     5.102000000    -0.431000000
H    -0.525000000     5.500000000    -1.287000000
C     1.887000000     4.154000000     0.728000000
C     1.096000000     3.952000000     1.841000000
H     1.562000000     3.432000000     2.674000000
C    -0.238000000     4.320000000     1.862000000
O    -0.974000000     4.010000000     3.005000000
C    -1.691000000     2.715000000     3.009000000
C    -1.709000000     1.929000000     4.260000000
C    -2.708000000     1.064000000     4.624000000
H    -3.572000000     0.996000000     3.968000000
C    -0.601000000     2.039000000     5.128000000
H     0.274000000     2.545000000     4.727000000
O    -3.062000000     2.956000000     2.570000000
H    -1.244000000     2.082000000     2.229000000
C    -0.765000000     4.853000000     0.684000000
C    -2.263000000     5.013000000     0.560000000
H    -2.419000000     5.801000000    -0.180000000
H    -2.768000000     5.373000000     1.460000000
C    -3.063000000     3.733000000     0.216000000
C    -3.358000000     3.482000000    -1.125000000
H    -3.103000000     4.283000000    -1.814000000
C    -3.377000000     2.829000000     1.210000000
C    -4.086000000     1.679000000     0.826000000
H    -4.399000000     0.977000000     1.594000000
C    -4.337000000     1.324000000    -0.521000000
O    -4.843000000     0.085000000    -0.794000000
C    -3.875000000    -0.786000000    -1.344000000
C    -4.096000000    -2.132000000    -0.783000000
C    -4.484000000    -2.273000000     0.567000000
H    -4.483000000    -1.431000000     1.254000000
C    -3.849000000    -3.256000000    -1.520000000
H    -3.510000000    -3.124000000    -2.544000000
O    -4.012000000    -0.822000000    -2.797000000
H    -2.858000000    -0.387000000    -1.220000000
C    -3.953000000     2.292000000    -1.486000000
C    -4.090000000     2.082000000    -2.982000000
H    -4.206000000     3.045000000    -3.485000000
H    -5.009000000     1.545000000    -3.226000000
C    -2.992000000     1.273000000    -3.600000000
C    -3.092000000    -0.123000000    -3.520000000
C    -2.070000000    -0.853000000    -4.054000000
H    -2.079000000    -1.919000000    -3.837000000
C    -0.928000000    -0.281000000    -4.516000000
O     0.207000000    -1.157000000    -4.649000000
C     1.322000000    -1.065000000    -3.673000000
H     0.885000000    -0.596000000    -2.780000000
C     1.856000000    -2.438000000    -3.244000000
C     3.221000000    -2.647000000    -3.117000000
H     3.838000000    -1.752000000    -3.126000000
C     1.013000000    -3.526000000    -3.186000000
H    -0.062000000    -3.419000000    -3.302000000
C     1.547000000    -4.835000000    -2.940000000
O     0.834000000    -5.962000000    -2.801000000
C     2.895000000    -4.962000000    -2.890000000
H     3.218000000    -5.968000000    -2.637000000
C     3.770000000    -3.889000000    -2.873000000
O     5.091000000    -4.157000000    -2.741000000
C     5.890000000    -3.182000000    -2.368000000
C     5.927000000    -2.662000000    -1.007000000
H     5.370000000    -3.168000000    -0.222000000
C     6.627000000    -2.519000000    -3.310000000
H     6.510000000    -2.845000000    -4.340000000
C     7.395000000    -1.407000000    -3.024000000
H     7.897000000    -0.887000000    -3.836000000
C     7.425000000    -0.933000000    -1.737000000
H     7.885000000    -0.016000000    -1.378000000
C     6.757000000    -1.576000000    -0.718000000
O     6.780000000    -1.056000000     0.614000000
C     5.812000000    -0.247000000     1.165000000
C     5.558000000    -0.289000000     2.543000000
H     6.096000000    -1.059000000     3.090000000
C     4.684000000     0.638000000     3.108000000
O     4.362000000     0.496000000     4.482000000
C     3.647000000     1.403000000     5.248000000
C     2.492000000     0.939000000     5.923000000
H     2.083000000    -0.041000000     5.693000000
C     3.978000000     2.758000000     5.340000000
H     4.849000000     3.190000000     4.855000000
C     3.222000000     3.613000000     6.109000000
H     3.567000000     4.632000000     6.267000000
C     2.088000000     3.142000000     6.878000000
H     1.405000000     3.799000000     7.410000000
C     1.742000000     1.817000000     6.755000000
O     0.490000000     1.391000000     7.201000000
C    -0.579000000     1.321000000     6.311000000
C    -1.626000000     0.430000000     6.631000000
H    -1.431000000    -0.177000000     7.512000000
C    -2.683000000     0.330000000     5.771000000
O    -3.762000000    -0.404000000     6.126000000
C    -4.575000000    -1.032000000     5.230000000
C    -4.099000000    -2.035000000     4.313000000
H    -3.043000000    -2.288000000     4.269000000
C    -5.974000000    -0.977000000     5.432000000
H    -6.381000000    -0.215000000     6.093000000
C    -6.889000000    -1.713000000     4.626000000
H    -7.941000000    -1.439000000     4.662000000
C    -6.459000000    -2.613000000     3.649000000
H    -7.152000000    -3.073000000     2.950000000
C    -5.054000000    -2.723000000     3.463000000
O    -4.544000000    -3.621000000     2.624000000
C    -4.540000000    -3.563000000     1.191000000
C    -4.311000000    -4.648000000     0.377000000
H    -4.337000000    -5.650000000     0.799000000
C    -4.024000000    -4.535000000    -0.978000000
O    -3.723000000    -5.702000000    -1.643000000
C    -2.834000000    -5.921000000    -2.619000000
C    -3.170000000    -6.341000000    -3.907000000
H    -4.237000000    -6.468000000    -4.072000000
C    -2.169000000    -6.543000000    -4.812000000
H    -2.507000000    -6.894000000    -5.784000000
C    -0.826000000    -6.321000000    -4.516000000
H    -0.057000000    -6.486000000    -5.266000000
C    -0.497000000    -6.033000000    -3.198000000
C    -1.494000000    -5.739000000    -2.298000000
H    -1.231000000    -5.442000000    -1.286000000
C     2.259000000    -1.640000000     1.644000000
H     2.947000000    -1.505000000     2.474000000
C     1.520000000    -0.590000000     1.085000000
H     1.756000000     0.430000000     1.379000000
C     0.558000000    -0.795000000     0.160000000
H    -0.081000000     0.038000000    -0.223000000
C     0.441000000    -2.096000000    -0.378000000
H    -0.348000000    -2.281000000    -1.102000000
C     1.293000000    -3.113000000     0.054000000
H     1.212000000    -4.080000000    -0.437000000
C     2.171000000    -2.969000000     1.147000000
C     3.041000000    -4.086000000     1.755000000
O     3.117000000    -5.162000000     1.194000000
O     3.643000000    -3.935000000     2.803000000
O    -0.834000000    -3.003000000     2.743000000
H    -0.797000000    -3.857000000     2.313000000
H    -0.613000000    -2.377000000     2.053000000
O     5.375000000    -8.685000000     0.552000000
H     5.753000000    -9.229000000     1.243000000
H     5.657000000    -7.796000000     0.766000000
O     0.023000000    -2.243000000     5.246000000
H     0.939000000    -2.419000000     5.029000000
H    -0.451000000    -2.402000000     4.430000000
O     4.244000000    -2.384000000     7.136000000
H     3.639000000    -2.894000000     6.597000000
H     5.067000000    -2.395000000     6.648000000
O     2.718000000    -6.846000000     3.571000000
H     3.288000000    -6.436000000     4.221000000
H     2.830000000    -6.313000000     2.784000000
O     4.581000000    -6.629000000     5.641000000
H     4.667000000    -7.403000000     5.085000000
H     5.253000000    -6.740000000     6.314000000
O     3.962000000    -8.250000000    -1.628000000
H     4.241000000    -8.498000000    -0.746000000
H     4.768000000    -7.976000000    -2.065000000
O     1.499000000    -8.785000000     2.170000000
H     1.733000000    -8.314000000     2.970000000
H     1.633000000    -8.147000000     1.469000000
O     6.447000000    -2.498000000     5.768000000
H     6.556000000    -3.326000000     5.300000000
H     7.315000000    -2.095000000     5.748000000
O    -1.187000000    -5.047000000     5.039000000
H    -1.425000000    -4.373000000     5.674000000
H    -1.289000000    -4.621000000     4.187000000
O    -0.547000000    -5.459000000     1.639000000
H     0.273000000    -5.948000000     1.563000000
H    -1.231000000    -6.116000000     1.508000000
O     1.864000000    -7.196000000    -0.055000000
H     2.335000000    -6.398000000     0.183000000
H     2.396000000    -7.593000000    -0.744000000
O     2.553000000    -3.539000000     5.058000000
H     3.080000000    -3.591000000     4.260000000
H     2.363000000    -4.451000000     5.279000000
O     7.969000000    -5.750000000     2.522000000
H     7.451000000    -5.482000000     3.281000000
H     7.366000000    -5.675000000     1.783000000
O     6.173000000    -6.489000000    -1.860000000
H     5.749000000    -5.779000000    -2.343000000
H     6.752000000    -6.902000000    -2.501000000
O     9.195000000    -1.015000000     1.744000000
H     9.754000000    -1.087000000     0.970000000
H     8.337000000    -1.322000000     1.449000000
O     1.052000000    -6.541000000     5.786000000
H     1.532000000    -6.891000000     5.035000000
H     0.337000000    -6.036000000     5.398000000
O     5.969000000    -5.691000000     0.701000000
H     6.051000000    -6.044000000    -0.184000000
H     5.028000000    -5.553000000     0.818000000
O     6.001000000    -4.613000000     4.029000000
H     5.512000000    -4.000000000     3.480000000
H     5.334000000    -5.197000000     4.389000000
