215
-1475.99261
C     4.351000000     2.518000000     2.191000000
H     3.769000000     3.359000000     2.560000000
C     4.302000000     2.142000000     0.907000000
C     5.008000000     1.068000000     0.492000000
H     4.748000000     0.623000000    -0.465000000
C     3.355000000     2.847000000    -0.049000000
O     3.009000000     4.226000000     0.313000000
H     2.415000000     2.276000000    -0.085000000
O     3.809000000     2.809000000    -1.416000000
C     2.966000000     2.469000000    -2.417000000
C     3.107000000     1.230000000    -3.014000000
H     3.873000000     0.551000000    -2.649000000
C     2.098000000     0.768000000    -3.827000000
O     2.229000000    -0.533000000    -4.150000000
C     1.042000000     1.564000000    -4.292000000
C     0.026000000     1.158000000    -5.271000000
H    -0.360000000     2.052000000    -5.764000000
C    -1.105000000     0.400000000    -4.587000000
C    -2.203000000     1.139000000    -4.191000000
H    -2.305000000     2.208000000    -4.362000000
H     0.457000000     0.535000000    -6.057000000
C     1.113000000     2.932000000    -3.899000000
H     0.492000000     3.718000000    -4.320000000
C     1.942000000     3.345000000    -2.880000000
C     1.865000000     4.719000000    -2.291000000
H     1.372000000     5.399000000    -2.988000000
H     2.876000000     5.083000000    -2.095000000
C     1.044000000     4.679000000    -1.053000000
C    -0.323000000     4.860000000    -1.137000000
H    -0.803000000     5.026000000    -2.098000000
C     1.657000000     4.494000000     0.190000000
C     0.908000000     4.532000000     1.344000000
H     1.420000000     4.357000000     2.286000000
C    -0.492000000     4.557000000     1.281000000
O    -1.208000000     4.201000000     2.449000000
C    -1.782000000     2.900000000     2.520000000
C    -1.553000000     2.173000000     3.820000000
C    -2.404000000     1.128000000     4.186000000
H    -3.276000000     0.853000000     3.599000000
C    -0.394000000     2.486000000     4.555000000
H     0.195000000     3.328000000     4.200000000
O    -3.134000000     2.982000000     2.126000000
H    -1.309000000     2.240000000     1.779000000
C    -1.157000000     4.691000000     0.048000000
C    -2.666000000     4.770000000    -0.043000000
H    -2.998000000     5.542000000    -0.739000000
H    -2.935000000     5.171000000     0.937000000
C    -3.330000000     3.448000000    -0.187000000
C    -3.753000000     3.094000000    -1.448000000
H    -3.640000000     3.824000000    -2.245000000
C    -3.462000000     2.527000000     0.868000000
C    -4.009000000     1.309000000     0.667000000
H    -4.066000000     0.555000000     1.447000000
C    -4.332000000     0.938000000    -0.580000000
O    -4.835000000    -0.336000000    -0.661000000
C    -3.930000000    -1.332000000    -1.172000000
C    -4.021000000    -2.575000000    -0.369000000
C    -4.554000000    -2.627000000     0.880000000
H    -4.913000000    -1.719000000     1.357000000
C    -3.384000000    -3.733000000    -0.749000000
H    -2.775000000    -3.755000000    -1.650000000
O    -4.119000000    -1.510000000    -2.548000000
H    -2.883000000    -1.010000000    -1.075000000
C    -4.273000000     1.793000000    -1.691000000
C    -4.559000000     1.314000000    -3.150000000
H    -4.519000000     2.137000000    -3.867000000
H    -5.503000000     0.786000000    -3.294000000
C    -3.252000000     0.491000000    -3.534000000
C    -3.215000000    -0.896000000    -3.325000000
C    -2.141000000    -1.669000000    -3.742000000
H    -2.225000000    -2.746000000    -3.618000000
C    -1.083000000    -1.025000000    -4.389000000
O     0.065000000    -1.648000000    -4.678000000
C     1.251000000    -1.475000000    -3.754000000
H     0.824000000    -1.060000000    -2.829000000
C     1.903000000    -2.847000000    -3.470000000
C     3.195000000    -2.979000000    -3.025000000
H     3.788000000    -2.069000000    -2.969000000
C     1.100000000    -3.988000000    -3.429000000
H     0.066000000    -3.964000000    -3.762000000
C     1.635000000    -5.263000000    -3.263000000
O     0.838000000    -6.450000000    -3.380000000
C     2.915000000    -5.346000000    -2.863000000
H     3.357000000    -6.306000000    -2.612000000
C     3.717000000    -4.221000000    -2.638000000
O     4.910000000    -4.303000000    -1.978000000
C     5.767000000    -3.286000000    -1.668000000
C     5.646000000    -2.606000000    -0.450000000
H     4.967000000    -3.025000000     0.288000000
C     6.615000000    -2.856000000    -2.654000000
H     6.621000000    -3.332000000    -3.631000000
C     7.518000000    -1.838000000    -2.318000000
H     8.267000000    -1.574000000    -3.061000000
C     7.457000000    -1.169000000    -1.103000000
H     8.100000000    -0.312000000    -0.919000000
C     6.521000000    -1.592000000    -0.185000000
O     6.459000000    -0.899000000     1.011000000
C     5.783000000     0.260000000     1.361000000
C     5.877000000     0.687000000     2.671000000
H     6.431000000     0.158000000     3.442000000
C     5.048000000     1.729000000     3.105000000
O     5.181000000     2.128000000     4.422000000
C     4.224000000     2.862000000     5.096000000
C     3.005000000     2.254000000     5.333000000
H     2.763000000     1.227000000     5.071000000
C     4.425000000     4.177000000     5.484000000
H     5.351000000     4.664000000     5.190000000
C     3.469000000     4.820000000     6.226000000
H     3.588000000     5.838000000     6.589000000
C     2.304000000     4.107000000     6.659000000
H     1.519000000     4.675000000     7.152000000
C     2.065000000     2.830000000     6.179000000
O     0.941000000     2.121000000     6.594000000
C    -0.152000000     1.880000000     5.795000000
C    -1.098000000     0.927000000     6.198000000
H    -1.098000000     0.447000000     7.174000000
C    -2.105000000     0.477000000     5.384000000
O    -2.858000000    -0.593000000     5.780000000
C    -4.006000000    -1.096000000     5.176000000
C    -3.935000000    -2.115000000     4.283000000
H    -2.981000000    -2.554000000     4.006000000
C    -5.206000000    -0.401000000     5.473000000
H    -5.123000000     0.500000000     6.076000000
C    -6.373000000    -0.957000000     4.976000000
H    -7.353000000    -0.578000000     5.253000000
C    -6.312000000    -2.039000000     4.127000000
H    -7.269000000    -2.484000000     3.865000000
C    -5.108000000    -2.620000000     3.730000000
O    -5.061000000    -3.758000000     2.958000000
C    -4.616000000    -3.737000000     1.652000000
C    -4.104000000    -4.926000000     1.187000000
H    -4.056000000    -5.770000000     1.871000000
C    -3.449000000    -4.944000000    -0.035000000
O    -3.009000000    -6.164000000    -0.573000000
C    -2.491000000    -6.214000000    -1.867000000
C    -3.339000000    -6.194000000    -3.011000000
H    -4.424000000    -6.246000000    -2.961000000
C    -2.708000000    -6.154000000    -4.212000000
H    -3.292000000    -6.094000000    -5.127000000
C    -1.334000000    -6.265000000    -4.382000000
H    -0.859000000    -6.282000000    -5.359000000
C    -0.530000000    -6.362000000    -3.249000000
C    -1.087000000    -6.314000000    -1.952000000
H    -0.460000000    -6.387000000    -1.067000000
C     2.386000000    -1.802000000     1.136000000
H     3.117000000    -1.694000000     1.933000000
C     1.808000000    -0.649000000     0.677000000
H     2.245000000     0.283000000     1.024000000
C     0.655000000    -0.717000000    -0.121000000
H     0.176000000     0.211000000    -0.541000000
C     0.134000000    -1.963000000    -0.433000000
H    -0.755000000    -1.992000000    -1.058000000
C     0.775000000    -3.096000000     0.006000000
H     0.486000000    -4.053000000    -0.420000000
C     1.913000000    -3.030000000     0.845000000
C     2.557000000    -4.234000000     1.493000000
O     2.099000000    -5.376000000     1.383000000
O     3.549000000    -4.108000000     2.160000000
O    -1.158000000    -1.846000000     2.450000000
H    -1.213000000    -2.790000000     2.300000000
H    -0.426000000    -1.559000000     1.903000000
O    -1.544000000    -7.879000000     1.975000000
H    -0.593000000    -7.970000000     1.910000000
H    -1.801000000    -8.528000000     2.631000000
O     3.508000000    -9.023000000     3.072000000
H     3.663000000    -9.878000000     3.472000000
H     4.372000000    -8.613000000     3.039000000
O     0.515000000    -2.175000000     4.809000000
H     1.124000000    -2.911000000     4.735000000
H     0.086000000    -2.132000000     3.955000000
O     4.132000000    -1.548000000     5.578000000
H     3.193000000    -1.656000000     5.424000000
H     4.549000000    -2.020000000     4.858000000
O     1.302000000    -7.766000000     2.170000000
H     1.809000000    -8.382000000     2.698000000
H     1.761000000    -6.931000000     2.268000000
O     4.851000000    -5.172000000     5.888000000
H     5.109000000    -5.910000000     6.440000000
H     5.624000000    -4.993000000     5.352000000
O     5.135000000    -9.174000000    -1.198000000
H     4.300000000    -8.732000000    -1.050000000
H     5.796000000    -8.519000000    -0.975000000
O    -1.340000000    -3.490000000     6.228000000
H    -1.972000000    -2.776000000     6.304000000
H    -0.561000000    -3.082000000     5.851000000
O     7.669000000    -4.174000000     5.208000000
H     6.965000000    -3.708000000     4.756000000
H     8.472000000    -3.846000000     4.802000000
O    -1.748000000    -5.617000000     4.631000000
H    -1.811000000    -4.780000000     5.091000000
H    -1.463000000    -5.384000000     3.747000000
O    -0.679000000    -4.785000000     2.185000000
H     0.192000000    -5.161000000     2.058000000
H    -1.273000000    -5.409000000     1.769000000
O     2.759000000    -7.833000000    -0.352000000
H     2.443000000    -7.051000000    -0.805000000
H     2.546000000    -7.679000000     0.568000000
O     2.818000000    -4.046000000     4.679000000
H     3.009000000    -4.164000000     3.748000000
H     3.519000000    -4.517000000     5.129000000
O     6.365000000    -8.396000000     2.852000000
H     6.903000000    -7.954000000     3.508000000
H     6.035000000    -7.690000000     2.297000000
O     6.121000000    -6.667000000    -0.986000000
H     5.698000000    -6.001000000    -1.528000000
H     7.019000000    -6.709000000    -1.316000000
O     1.900000000    -4.863000000     7.151000000
H     2.207000000    -4.258000000     6.476000000
H     1.813000000    -4.322000000     7.936000000
O     5.647000000    -5.984000000     1.813000000
H     5.723000000    -6.016000000     0.859000000
H     4.901000000    -5.405000000     1.974000000
O     5.412000000    -2.499000000     3.382000000
H     5.812000000    -2.091000000     2.614000000
H     4.902000000    -3.227000000     3.028000000
