215
-1413.39202
C     4.731000000     2.689000000    -0.569000000
H     4.438000000     3.728000000    -0.435000000
C     4.140000000     1.832000000    -1.500000000
C     4.451000000     0.483000000    -1.434000000
H     3.954000000    -0.184000000    -2.134000000
C     2.962000000     2.262000000    -2.319000000
O     2.820000000     3.724000000    -2.211000000
H     2.012000000     1.807000000    -2.000000000
O     3.053000000     2.009000000    -3.754000000
C     1.911000000     1.509000000    -4.194000000
C     1.846000000     0.128000000    -4.413000000
H     2.786000000    -0.364000000    -4.175000000
C     0.641000000    -0.559000000    -4.588000000
O     0.657000000    -1.960000000    -4.530000000
C    -0.529000000     0.217000000    -4.702000000
C    -1.841000000    -0.385000000    -5.114000000
H    -2.462000000     0.225000000    -5.774000000
C    -2.714000000    -0.759000000    -3.879000000
C    -3.647000000     0.131000000    -3.299000000
H    -3.754000000     1.106000000    -3.768000000
H    -1.679000000    -1.318000000    -5.659000000
C    -0.460000000     1.573000000    -4.733000000
H    -1.317000000     2.232000000    -4.849000000
C     0.712000000     2.242000000    -4.387000000
C     0.596000000     3.683000000    -4.248000000
H    -0.246000000     4.057000000    -4.834000000
H     1.468000000     4.244000000    -4.589000000
C     0.422000000     3.991000000    -2.741000000
C    -0.892000000     4.291000000    -2.274000000
H    -1.651000000     4.363000000    -3.048000000
C     1.481000000     4.024000000    -1.863000000
C     1.167000000     4.190000000    -0.544000000
H     1.970000000     4.182000000     0.189000000
C    -0.126000000     4.416000000    -0.148000000
O    -0.328000000     4.495000000     1.187000000
C    -0.848000000     3.449000000     1.956000000
C    -0.167000000     3.475000000     3.397000000
C    -0.822000000     2.865000000     4.519000000
H    -1.882000000     2.629000000     4.564000000
C     1.083000000     4.066000000     3.563000000
H     1.471000000     4.676000000     2.752000000
O    -2.360000000     3.608000000     2.168000000
H    -0.731000000     2.525000000     1.369000000
C    -1.179000000     4.444000000    -0.983000000
C    -2.588000000     4.761000000    -0.473000000
H    -3.134000000     5.345000000    -1.217000000
H    -2.474000000     5.350000000     0.439000000
C    -3.337000000     3.467000000    -0.151000000
C    -4.049000000     2.727000000    -1.069000000
H    -4.173000000     3.096000000    -2.083000000
C    -3.254000000     2.999000000     1.205000000
C    -3.804000000     1.830000000     1.577000000
H    -3.647000000     1.452000000     2.584000000
C    -4.463000000     1.109000000     0.670000000
O    -4.976000000    -0.146000000     1.033000000
C    -4.202000000    -1.297000000     0.683000000
C    -3.946000000    -2.230000000     1.860000000
C    -3.418000000    -1.713000000     3.047000000
H    -3.232000000    -0.651000000     3.187000000
C    -4.037000000    -3.622000000     1.719000000
H    -4.431000000    -4.128000000     0.841000000
O    -4.806000000    -1.954000000    -0.500000000
H    -3.199000000    -1.018000000     0.329000000
C    -4.660000000     1.573000000    -0.645000000
C    -5.398000000     0.725000000    -1.676000000
H    -5.883000000     1.286000000    -2.477000000
H    -6.190000000     0.169000000    -1.169000000
C    -4.401000000    -0.267000000    -2.238000000
C    -4.228000000    -1.595000000    -1.664000000
C    -3.353000000    -2.485000000    -2.267000000
H    -3.127000000    -3.466000000    -1.858000000
C    -2.511000000    -2.040000000    -3.309000000
O    -1.490000000    -2.827000000    -3.787000000
C    -0.065000000    -2.615000000    -3.438000000
H     0.067000000    -1.843000000    -2.666000000
C     0.646000000    -3.878000000    -2.893000000
C     1.980000000    -4.093000000    -3.122000000
H     2.557000000    -3.429000000    -3.760000000
C    -0.058000000    -4.880000000    -2.183000000
H    -1.091000000    -4.677000000    -1.912000000
C     0.608000000    -6.036000000    -1.776000000
O     0.095000000    -6.995000000    -0.900000000
C     1.968000000    -6.194000000    -2.035000000
H     2.459000000    -7.128000000    -1.773000000
C     2.704000000    -5.212000000    -2.724000000
O     4.148000000    -5.309000000    -2.900000000
C     4.967000000    -4.159000000    -2.817000000
C     4.908000000    -3.296000000    -1.769000000
H     4.350000000    -3.585000000    -0.882000000
C     5.709000000    -3.727000000    -3.940000000
H     5.600000000    -4.405000000    -4.783000000
C     6.387000000    -2.474000000    -3.925000000
H     6.838000000    -2.106000000    -4.843000000
C     6.455000000    -1.695000000    -2.825000000
H     7.135000000    -0.857000000    -2.695000000
C     5.699000000    -2.078000000    -1.701000000
O     5.837000000    -1.366000000    -0.537000000
C     5.418000000    -0.028000000    -0.560000000
C     5.859000000     0.775000000     0.418000000
H     6.415000000     0.296000000     1.219000000
C     5.576000000     2.108000000     0.464000000
O     6.148000000     2.874000000     1.532000000
C     5.413000000     3.876000000     2.164000000
C     4.589000000     3.659000000     3.340000000
H     4.500000000     2.671000000     3.786000000
C     5.514000000     5.202000000     1.772000000
H     6.234000000     5.456000000     0.998000000
C     4.835000000     6.229000000     2.413000000
H     4.944000000     7.262000000     2.092000000
C     4.058000000     5.970000000     3.536000000
H     3.526000000     6.690000000     4.153000000
C     3.927000000     4.694000000     3.977000000
O     3.003000000     4.420000000     4.986000000
C     1.781000000     3.861000000     4.737000000
C     1.220000000     3.141000000     5.784000000
H     1.775000000     2.931000000     6.695000000
C    -0.049000000     2.653000000     5.662000000
O    -0.678000000     2.164000000     6.786000000
C    -1.613000000     1.162000000     6.782000000
C    -1.383000000    -0.063000000     6.095000000
H    -0.418000000    -0.341000000     5.680000000
C    -2.890000000     1.450000000     7.209000000
H    -3.050000000     2.348000000     7.800000000
C    -3.879000000     0.486000000     7.220000000
H    -4.875000000     0.663000000     7.617000000
C    -3.697000000    -0.689000000     6.477000000
H    -4.498000000    -1.422000000     6.437000000
C    -2.506000000    -0.948000000     5.866000000
O    -2.202000000    -2.103000000     5.149000000
C    -3.003000000    -2.621000000     4.062000000
C    -2.983000000    -3.985000000     3.857000000
H    -2.399000000    -4.619000000     4.519000000
C    -3.511000000    -4.472000000     2.668000000
O    -3.334000000    -5.790000000     2.336000000
C    -2.866000000    -6.339000000     1.154000000
C    -3.796000000    -6.944000000     0.389000000
H    -4.867000000    -6.867000000     0.559000000
C    -3.380000000    -7.500000000    -0.833000000
H    -4.139000000    -8.040000000    -1.393000000
C    -2.093000000    -7.547000000    -1.172000000
H    -1.704000000    -8.128000000    -2.005000000
C    -1.178000000    -6.930000000    -0.403000000
C    -1.559000000    -6.274000000     0.767000000
H    -0.771000000    -5.836000000     1.375000000
C     2.418000000    -0.977000000     0.896000000
H     3.359000000    -0.640000000     1.323000000
C     1.539000000    -0.107000000     0.232000000
H     1.842000000     0.934000000     0.154000000
C     0.251000000    -0.531000000    -0.178000000
H    -0.388000000     0.184000000    -0.667000000
C    -0.109000000    -1.834000000    -0.103000000
H    -1.092000000    -2.202000000    -0.387000000
C     0.789000000    -2.739000000     0.570000000
H     0.468000000    -3.778000000     0.566000000
C     2.004000000    -2.332000000     1.082000000
C     2.952000000    -3.302000000     1.635000000
O     2.769000000    -4.494000000     1.574000000
O     3.927000000    -2.873000000     2.231000000
O     2.270000000    -0.106000000     5.111000000
H     2.556000000     0.014000000     6.017000000
H     1.491000000     0.444000000     5.031000000
O     6.914000000    -4.825000000     6.713000000
H     6.522000000    -5.670000000     6.933000000
H     6.187000000    -4.204000000     6.759000000
O     6.581000000    -3.345000000     1.461000000
H     5.693000000    -3.349000000     1.817000000
H     6.619000000    -2.555000000     0.921000000
O     7.230000000    -6.201000000     2.026000000
H     6.356000000    -6.564000000     1.880000000
H     7.139000000    -5.270000000     1.823000000
O     6.328000000     0.720000000     5.880000000
H     7.216000000     0.825000000     6.222000000
H     6.277000000    -0.202000000     5.626000000
O     1.568000000    -8.700000000     4.533000000
H     1.547000000    -9.397000000     3.877000000
H     1.655000000    -7.894000000     4.024000000
O     2.053000000    -3.428000000     6.410000000
H     2.353000000    -3.705000000     7.276000000
H     1.906000000    -2.486000000     6.498000000
O     3.873000000    -4.630000000     4.630000000
H     4.064000000    -4.192000000     3.800000000
H     3.400000000    -3.974000000     5.143000000
O     4.956000000    -1.792000000     7.252000000
H     4.470000000    -0.971000000     7.336000000
H     4.433000000    -2.429000000     7.739000000
O     1.513000000    -6.285000000     3.236000000
H     1.938000000    -5.536000000     2.819000000
H     1.025000000    -5.907000000     3.968000000
O     4.325000000    -7.306000000     5.005000000
H     3.795000000    -7.721000000     5.686000000
H     4.023000000    -6.398000000     4.986000000
O     0.037000000    -5.304000000     5.407000000
H    -0.690000000    -5.200000000     6.022000000
H     0.770000000    -4.851000000     5.825000000
O     4.104000000    -8.980000000     0.648000000
H     3.355000000    -9.175000000     1.212000000
H     4.443000000    -8.149000000     0.979000000
O     0.047000000    -0.377000000     2.943000000
H    -0.189000000    -1.273000000     3.180000000
H     0.436000000    -0.454000000     2.072000000
O     7.449000000    -2.124000000     4.131000000
H     6.621000000    -1.648000000     4.073000000
H     7.324000000    -2.892000000     3.574000000
O     7.402000000    -5.116000000    -0.737000000
H     7.138000000    -4.373000000    -0.194000000
H     6.675000000    -5.735000000    -0.666000000
O     1.068000000    -8.241000000     1.484000000
H     0.723000000    -7.938000000     0.644000000
H     1.245000000    -7.438000000     1.974000000
O     4.455000000    -6.503000000     1.834000000
H     4.179000000    -6.735000000     2.721000000
H     3.996000000    -5.684000000     1.647000000
O     4.728000000    -1.196000000     4.040000000
H     3.904000000    -0.837000000     4.370000000
H     4.464000000    -1.845000000     3.389000000
