215
-1422.93154
C     4.268000000     1.652000000    -0.504000000
H     3.622000000     2.364000000     0.003000000
C     4.015000000     1.218000000    -1.817000000
C     4.804000000     0.218000000    -2.357000000
H     4.545000000    -0.143000000    -3.348000000
C     2.845000000     1.760000000    -2.571000000
O     2.774000000     3.156000000    -2.640000000
H     2.018000000     1.356000000    -1.968000000
O     2.727000000     1.167000000    -3.914000000
C     1.549000000     0.693000000    -4.403000000
C     1.394000000    -0.713000000    -4.357000000
H     2.192000000    -1.406000000    -4.100000000
C     0.190000000    -1.322000000    -4.558000000
O     0.155000000    -2.660000000    -4.369000000
C    -0.945000000    -0.557000000    -4.752000000
C    -2.312000000    -1.180000000    -4.977000000
H    -2.899000000    -0.526000000    -5.627000000
C    -3.009000000    -1.326000000    -3.627000000
C    -3.788000000    -0.294000000    -3.161000000
H    -3.725000000     0.674000000    -3.651000000
H    -2.276000000    -2.113000000    -5.543000000
C    -0.815000000     0.858000000    -4.732000000
H    -1.680000000     1.485000000    -4.933000000
C     0.419000000     1.469000000    -4.562000000
C     0.636000000     3.007000000    -4.626000000
H    -0.025000000     3.536000000    -5.316000000
H     1.556000000     3.198000000    -5.182000000
C     0.497000000     3.634000000    -3.274000000
C    -0.779000000     4.188000000    -2.897000000
H    -1.642000000     4.007000000    -3.531000000
C     1.551000000     3.718000000    -2.422000000
C     1.335000000     4.442000000    -1.214000000
H     2.094000000     4.467000000    -0.437000000
C     0.104000000     4.900000000    -0.810000000
O    -0.127000000     5.281000000     0.539000000
C    -0.677000000     4.350000000     1.447000000
C    -0.097000000     4.435000000     2.892000000
C    -0.862000000     4.066000000     4.048000000
H    -1.933000000     3.886000000     3.995000000
C     1.302000000     4.547000000     2.934000000
H     1.882000000     4.797000000     2.049000000
O    -2.117000000     4.470000000     1.520000000
H    -0.460000000     3.385000000     0.965000000
C    -0.967000000     4.738000000    -1.651000000
C    -2.350000000     4.948000000    -1.271000000
H    -2.938000000     5.190000000    -2.159000000
H    -2.446000000     5.816000000    -0.615000000
C    -3.080000000     3.800000000    -0.527000000
C    -3.852000000     2.866000000    -1.210000000
H    -3.965000000     3.071000000    -2.271000000
C    -2.910000000     3.633000000     0.790000000
C    -3.451000000     2.586000000     1.416000000
H    -3.190000000     2.450000000     2.462000000
C    -4.205000000     1.586000000     0.769000000
O    -4.530000000     0.383000000     1.413000000
C    -3.723000000    -0.849000000     1.135000000
C    -3.435000000    -1.567000000     2.435000000
C    -3.249000000    -0.886000000     3.607000000
H    -3.397000000     0.189000000     3.668000000
C    -3.163000000    -2.908000000     2.369000000
H    -3.479000000    -3.420000000     1.463000000
O    -4.437000000    -1.689000000     0.185000000
H    -2.773000000    -0.468000000     0.734000000
C    -4.380000000     1.734000000    -0.605000000
C    -5.155000000     0.767000000    -1.350000000
H    -5.526000000     1.276000000    -2.242000000
H    -6.041000000     0.407000000    -0.821000000
C    -4.330000000    -0.455000000    -1.877000000
C    -4.086000000    -1.604000000    -1.122000000
C    -3.300000000    -2.631000000    -1.648000000
H    -3.060000000    -3.555000000    -1.128000000
C    -2.690000000    -2.438000000    -2.895000000
O    -1.883000000    -3.446000000    -3.369000000
C    -0.495000000    -3.144000000    -3.186000000
H    -0.422000000    -2.319000000    -2.461000000
C     0.219000000    -4.299000000    -2.451000000
C     1.600000000    -4.214000000    -2.213000000
H     2.128000000    -3.382000000    -2.672000000
C    -0.457000000    -5.324000000    -1.742000000
H    -1.540000000    -5.380000000    -1.815000000
C     0.306000000    -6.227000000    -0.953000000
O    -0.371000000    -7.146000000    -0.115000000
C     1.696000000    -6.244000000    -0.954000000
H     2.152000000    -6.907000000    -0.223000000
C     2.362000000    -5.188000000    -1.576000000
O     3.737000000    -5.028000000    -1.338000000
C     4.710000000    -4.472000000    -2.138000000
C     5.247000000    -3.233000000    -1.823000000
H     4.934000000    -2.722000000    -0.916000000
C     5.205000000    -5.144000000    -3.258000000
H     4.814000000    -6.114000000    -3.552000000
C     6.028000000    -4.383000000    -4.102000000
H     6.230000000    -4.796000000    -5.087000000
C     6.549000000    -3.165000000    -3.833000000
H     7.280000000    -2.593000000    -4.398000000
C     6.166000000    -2.575000000    -2.630000000
O     6.669000000    -1.338000000    -2.207000000
C     5.927000000    -0.294000000    -1.678000000
C     6.160000000     0.106000000    -0.406000000
H     6.963000000    -0.368000000     0.153000000
C     5.338000000     1.094000000     0.229000000
O     5.562000000     1.474000000     1.490000000
C     5.270000000     2.773000000     1.895000000
C     4.320000000     3.048000000     2.884000000
H     3.830000000     2.263000000     3.454000000
C     6.067000000     3.799000000     1.354000000
H     6.921000000     3.509000000     0.748000000
C     5.913000000     5.071000000     1.806000000
H     6.697000000     5.785000000     1.567000000
C     4.860000000     5.423000000     2.691000000
H     4.726000000     6.428000000     3.084000000
C     4.112000000     4.397000000     3.271000000
O     3.307000000     4.650000000     4.301000000
C     1.989000000     4.341000000     4.177000000
C     1.163000000     4.183000000     5.320000000
H     1.589000000     4.130000000     6.319000000
C    -0.172000000     3.943000000     5.220000000
O    -0.838000000     3.467000000     6.349000000
C    -1.846000000     2.532000000     6.344000000
C    -1.619000000     1.178000000     6.088000000
H    -0.572000000     0.939000000     5.916000000
C    -3.066000000     3.044000000     6.639000000
H    -3.217000000     4.103000000     6.832000000
C    -4.178000000     2.200000000     6.630000000
H    -5.171000000     2.631000000     6.735000000
C    -4.062000000     0.822000000     6.356000000
H    -4.983000000     0.245000000     6.375000000
C    -2.759000000     0.332000000     6.085000000
O    -2.578000000    -1.006000000     5.938000000
C    -2.689000000    -1.638000000     4.711000000
C    -2.439000000    -3.021000000     4.611000000
H    -2.015000000    -3.637000000     5.400000000
C    -2.707000000    -3.623000000     3.413000000
O    -2.698000000    -5.019000000     3.260000000
C    -2.792000000    -5.833000000     2.146000000
C    -3.993000000    -6.301000000     1.678000000
H    -4.926000000    -5.889000000     2.052000000
C    -4.009000000    -7.192000000     0.598000000
H    -4.994000000    -7.540000000     0.298000000
C    -2.793000000    -7.583000000     0.046000000
H    -2.791000000    -8.418000000    -0.650000000
C    -1.634000000    -6.959000000     0.433000000
C    -1.615000000    -6.129000000     1.549000000
H    -0.675000000    -5.779000000     1.968000000
C     0.748000000    -0.256000000     3.252000000
H     0.951000000     0.222000000     4.208000000
C     0.541000000     0.450000000     1.988000000
H     0.514000000     1.537000000     1.995000000
C     0.098000000    -0.236000000     0.829000000
H    -0.270000000     0.149000000    -0.030000000
C    -0.006000000    -1.645000000     0.942000000
H    -0.288000000    -2.295000000     0.117000000
C     0.332000000    -2.318000000     2.089000000
H     0.098000000    -3.370000000     2.232000000
C     0.593000000    -1.629000000     3.274000000
C     0.757000000    -2.332000000     4.579000000
O     1.092000000    -3.477000000     4.573000000
O     0.815000000    -1.679000000     5.595000000
O     4.231000000    -0.670000000     3.240000000
H     5.054000000    -0.247000000     2.995000000
H     3.878000000    -1.004000000     2.416000000
O    -1.194000000    -8.053000000     4.444000000
H    -0.854000000    -7.259000000     4.857000000
H    -0.587000000    -8.742000000     4.713000000
O     2.642000000     1.308000000     9.242000000
H     2.436000000     1.230000000     8.311000000
H     2.718000000     0.404000000     9.547000000
O    -1.362000000    -2.842000000    10.358000000
H    -2.279000000    -2.991000000    10.589000000
H    -1.190000000    -3.460000000     9.647000000
O    -4.456000000    -2.272000000     7.483000000
H    -3.656000000    -1.981000000     7.047000000
H    -4.882000000    -2.844000000     6.845000000
O     1.724000000    -7.190000000     4.640000000
H     1.239000000    -6.682000000     5.291000000
H     1.850000000    -6.584000000     3.910000000
O     3.299000000    -0.638000000     5.692000000
H     2.376000000    -0.886000000     5.740000000
H     3.561000000    -0.860000000     4.798000000
O     6.260000000    -3.436000000     2.982000000
H     6.434000000    -2.495000000     3.008000000
H     5.315000000    -3.509000000     3.117000000
O    -2.428000000    -6.266000000     7.351000000
H    -2.017000000    -6.186000000     8.211000000
H    -1.743000000    -6.011000000     6.733000000
O     0.681000000    -0.788000000     8.167000000
H     0.566000000    -0.660000000     7.226000000
H     0.729000000    -1.738000000     8.276000000
O     3.539000000    -4.877000000     1.972000000
H     4.311000000    -5.298000000     1.595000000
H     3.770000000    -4.726000000     2.888000000
O     1.975000000    -5.795000000     7.933000000
H     2.027000000    -4.882000000     7.653000000
H     2.867000000    -6.128000000     7.832000000
O    -0.157000000    -5.414000000     6.049000000
H     0.214000000    -4.750000000     5.468000000
H     0.491000000    -5.511000000     6.747000000
O    -0.422000000    -5.778000000     9.381000000
H     0.357000000    -5.731000000     8.828000000
H    -0.383000000    -6.649000000     9.776000000
O     4.943000000    -1.737000000     7.392000000
H     4.603000000    -1.423000000     8.229000000
H     4.282000000    -1.475000000     6.751000000
O     5.518000000     1.168000000     6.311000000
H     6.114000000     0.653000000     6.855000000
H     4.847000000     0.543000000     6.035000000
O     3.672000000    -4.371000000     4.868000000
H     2.773000000    -4.048000000     4.919000000
H     3.856000000    -4.708000000     5.745000000
O     3.281000000    -2.083000000     1.238000000
H     3.541000000    -2.994000000     1.371000000
H     2.326000000    -2.113000000     1.181000000
O     2.048000000    -3.071000000     7.418000000
H     2.988000000    -2.938000000     7.297000000
H     1.644000000    -2.626000000     6.673000000
