215
-1472.51697
C     4.411000000     2.809000000    -1.048000000
H     3.915000000     3.776000000    -1.081000000
C     3.923000000     1.830000000    -1.958000000
C     4.549000000     0.632000000    -2.047000000
H     4.109000000    -0.141000000    -2.672000000
C     2.563000000     2.001000000    -2.588000000
O     2.201000000     3.370000000    -2.759000000
H     1.809000000     1.476000000    -1.983000000
O     2.565000000     1.387000000    -3.930000000
C     1.462000000     0.730000000    -4.393000000
C     1.501000000    -0.684000000    -4.272000000
H     2.463000000    -1.121000000    -4.017000000
C     0.413000000    -1.509000000    -4.536000000
O     0.489000000    -2.800000000    -4.144000000
C    -0.855000000    -0.824000000    -4.712000000
C    -2.135000000    -1.667000000    -4.802000000
H    -2.802000000    -1.177000000    -5.514000000
C    -2.809000000    -1.978000000    -3.494000000
C    -3.790000000    -1.118000000    -2.955000000
H    -4.061000000    -0.225000000    -3.512000000
H    -2.009000000    -2.609000000    -5.341000000
C    -0.928000000     0.585000000    -4.868000000
H    -1.927000000     1.010000000    -4.916000000
C     0.232000000     1.310000000    -4.701000000
C     0.155000000     2.833000000    -4.816000000
H    -0.655000000     2.999000000    -5.529000000
H     1.078000000     3.178000000    -5.285000000
C    -0.138000000     3.433000000    -3.440000000
C    -1.456000000     3.757000000    -3.132000000
H    -2.267000000     3.521000000    -3.815000000
C     0.928000000     3.781000000    -2.574000000
C     0.659000000     4.311000000    -1.299000000
H     1.400000000     4.297000000    -0.504000000
C    -0.633000000     4.621000000    -0.963000000
O    -0.756000000     4.962000000     0.348000000
C    -1.151000000     3.932000000     1.231000000
C    -0.337000000     3.870000000     2.525000000
C    -1.006000000     3.490000000     3.673000000
H    -2.034000000     3.143000000     3.614000000
C     1.011000000     4.248000000     2.546000000
H     1.509000000     4.621000000     1.655000000
O    -2.556000000     4.015000000     1.458000000
H    -0.984000000     2.974000000     0.716000000
C    -1.706000000     4.256000000    -1.815000000
C    -3.175000000     4.425000000    -1.439000000
H    -3.869000000     4.598000000    -2.264000000
H    -3.229000000     5.345000000    -0.855000000
C    -3.655000000     3.221000000    -0.611000000
C    -4.311000000     2.146000000    -1.276000000
H    -4.555000000     2.235000000    -2.331000000
C    -3.340000000     3.124000000     0.762000000
C    -3.780000000     2.011000000     1.464000000
H    -3.521000000     1.932000000     2.517000000
C    -4.418000000     1.021000000     0.851000000
O    -4.646000000    -0.114000000     1.562000000
C    -3.830000000    -1.311000000     1.367000000
C    -3.599000000    -2.002000000     2.648000000
C    -3.483000000    -1.323000000     3.872000000
H    -3.906000000    -0.337000000     4.047000000
C    -3.376000000    -3.345000000     2.608000000
H    -3.605000000    -3.924000000     1.717000000
O    -4.275000000    -2.274000000     0.367000000
H    -2.835000000    -0.965000000     1.050000000
C    -4.648000000     0.989000000    -0.554000000
C    -5.276000000    -0.195000000    -1.248000000
H    -5.759000000     0.090000000    -2.185000000
H    -6.030000000    -0.622000000    -0.583000000
C    -4.226000000    -1.238000000    -1.664000000
C    -3.750000000    -2.240000000    -0.886000000
C    -2.922000000    -3.225000000    -1.420000000
H    -2.592000000    -4.077000000    -0.831000000
C    -2.412000000    -3.092000000    -2.699000000
O    -1.280000000    -3.834000000    -3.059000000
C     0.004000000    -3.174000000    -2.799000000
H    -0.193000000    -2.285000000    -2.182000000
C     0.970000000    -4.151000000    -2.149000000
C     2.355000000    -4.160000000    -2.444000000
H     2.687000000    -3.491000000    -3.234000000
C     0.513000000    -4.947000000    -1.070000000
H    -0.540000000    -4.876000000    -0.812000000
C     1.375000000    -5.751000000    -0.336000000
O     0.865000000    -6.561000000     0.691000000
C     2.688000000    -5.900000000    -0.774000000
H     3.353000000    -6.635000000    -0.328000000
C     3.146000000    -5.081000000    -1.793000000
O     4.441000000    -5.271000000    -2.192000000
C     5.220000000    -4.201000000    -2.642000000
C     5.383000000    -3.103000000    -1.777000000
H     4.978000000    -3.179000000    -0.771000000
C     5.684000000    -4.126000000    -3.952000000
H     5.481000000    -4.986000000    -4.585000000
C     6.440000000    -3.086000000    -4.402000000
H     6.832000000    -3.068000000    -5.415000000
C     6.450000000    -1.966000000    -3.581000000
H     6.996000000    -1.168000000    -4.078000000
C     6.062000000    -1.954000000    -2.239000000
O     6.346000000    -0.822000000    -1.448000000
C     5.704000000     0.369000000    -1.388000000
C     6.104000000     1.294000000    -0.401000000
H     7.032000000     1.123000000     0.138000000
C     5.548000000     2.562000000    -0.317000000
O     6.029000000     3.420000000     0.555000000
C     5.286000000     4.456000000     1.127000000
C     4.428000000     4.165000000     2.154000000
H     4.167000000     3.156000000     2.462000000
C     5.490000000     5.747000000     0.610000000
H     6.167000000     6.009000000    -0.199000000
C     4.801000000     6.840000000     1.219000000
H     4.923000000     7.878000000     0.922000000
C     3.929000000     6.480000000     2.275000000
H     3.250000000     7.261000000     2.608000000
C     3.745000000     5.220000000     2.782000000
O     3.006000000     4.858000000     3.868000000
C     1.688000000     4.286000000     3.802000000
C     1.016000000     3.869000000     4.973000000
H     1.540000000     3.854000000     5.926000000
C    -0.270000000     3.444000000     4.900000000
O    -0.799000000     3.084000000     6.077000000
C    -1.935000000     2.234000000     6.179000000
C    -1.886000000     0.895000000     5.912000000
H    -1.138000000     0.525000000     5.214000000
C    -2.898000000     2.693000000     7.042000000
H    -2.892000000     3.723000000     7.389000000
C    -3.816000000     1.843000000     7.491000000
H    -4.499000000     2.216000000     8.250000000
C    -3.877000000     0.472000000     7.130000000
H    -4.566000000    -0.255000000     7.553000000
C    -2.880000000    -0.001000000     6.358000000
O    -2.723000000    -1.314000000     6.170000000
C    -3.008000000    -2.003000000     5.024000000
C    -2.642000000    -3.326000000     4.921000000
H    -2.323000000    -3.842000000     5.823000000
C    -2.945000000    -4.006000000     3.767000000
O    -2.705000000    -5.375000000     3.692000000
C    -2.228000000    -6.045000000     2.595000000
C    -3.113000000    -6.768000000     1.817000000
H    -4.149000000    -6.867000000     2.129000000
C    -2.732000000    -7.418000000     0.653000000
H    -3.494000000    -7.930000000     0.070000000
C    -1.387000000    -7.335000000     0.319000000
H    -1.099000000    -7.695000000    -0.666000000
C    -0.473000000    -6.622000000     1.048000000
C    -0.892000000    -5.949000000     2.219000000
H    -0.131000000    -5.559000000     2.891000000
C     0.976000000     0.492000000     2.599000000
H     1.473000000     1.296000000     3.136000000
C     0.596000000     0.744000000     1.246000000
H     0.854000000     1.718000000     0.840000000
C     0.114000000    -0.264000000     0.438000000
H    -0.052000000    -0.127000000    -0.692000000
C    -0.148000000    -1.491000000     0.999000000
H    -0.650000000    -2.238000000     0.390000000
C     0.056000000    -1.718000000     2.336000000
H    -0.302000000    -2.626000000     2.814000000
C     0.770000000    -0.797000000     3.126000000
C     1.163000000    -1.107000000     4.540000000
O     1.057000000    -2.265000000     4.995000000
O     1.808000000    -0.296000000     5.178000000
O     4.307000000     0.036000000     2.359000000
H     3.772000000    -0.437000000     1.721000000
H     5.032000000     0.394000000     1.846000000
O     3.108000000    -1.686000000     8.998000000
H     3.829000000    -1.774000000     8.375000000
H     2.762000000    -2.573000000     9.091000000
O    -2.360000000    -3.428000000     9.044000000
H    -3.150000000    -3.492000000     8.507000000
H    -1.678000000    -3.148000000     8.434000000
O     6.947000000    -4.013000000     3.785000000
H     6.866000000    -4.575000000     3.014000000
H     6.413000000    -4.443000000     4.452000000
O    -0.280000000    -6.899000000     6.461000000
H     0.064000000    -6.051000000     6.182000000
H     0.497000000    -7.404000000     6.703000000
O     3.935000000     1.710000000     4.786000000
H     3.223000000     1.135000000     5.065000000
H     4.171000000     1.392000000     3.914000000
O     5.994000000    -1.313000000     4.195000000
H     5.237000000    -1.027000000     3.683000000
H     6.574000000    -1.726000000     3.555000000
O     3.648000000    -4.464000000     6.726000000
H     3.719000000    -3.558000000     6.426000000
H     3.314000000    -4.396000000     7.620000000
O     1.102000000    -0.263000000     7.687000000
H     1.320000000    -0.118000000     6.767000000
H     1.923000000    -0.553000000     8.085000000
O     0.621000000    -1.427000000    10.248000000
H     0.153000000    -0.684000000     9.868000000
H     1.246000000    -1.688000000     9.572000000
O     2.711000000    -4.030000000     2.661000000
H     2.269000000    -4.810000000     2.998000000
H     2.738000000    -3.430000000     3.406000000
O     1.910000000    -4.180000000     8.798000000
H     1.220000000    -3.765000000     8.279000000
H     1.477000000    -4.919000000     9.224000000
O    -0.130000000    -2.913000000     7.323000000
H    -0.366000000    -3.468000000     6.580000000
H     0.361000000    -2.188000000     6.934000000
O    -0.349000000     1.845000000     8.851000000
H     0.232000000     1.185000000     8.473000000
H    -1.059000000     1.932000000     8.215000000
O     5.987000000     0.445000000     8.285000000
H     6.016000000     0.725000000     9.199000000
H     5.168000000    -0.044000000     8.209000000
O     6.240000000     2.116000000     5.814000000
H     6.256000000     1.359000000     6.400000000
H     5.494000000     1.955000000     5.236000000
O     1.178000000    -4.760000000     5.337000000
H     1.179000000    -3.803000000     5.344000000
H     2.014000000    -5.003000000     5.736000000
O     3.190000000    -2.005000000     0.814000000
H     3.376000000    -2.773000000     1.355000000
H     2.267000000    -1.813000000     0.979000000
O     3.961000000    -1.813000000     6.202000000
H     4.621000000    -1.585000000     5.547000000
H     3.136000000    -1.500000000     5.830000000
