215
-1459.67642
C     4.073000000     3.365000000    -1.880000000
H     3.520000000     4.299000000    -1.832000000
C     3.593000000     2.258000000    -2.524000000
C     4.348000000     1.064000000    -2.530000000
H     3.839000000     0.180000000    -2.907000000
C     2.171000000     2.166000000    -3.036000000
O     1.691000000     3.476000000    -3.161000000
H     1.549000000     1.646000000    -2.293000000
O     2.152000000     1.425000000    -4.274000000
C     1.023000000     0.685000000    -4.479000000
C     1.216000000    -0.726000000    -4.342000000
H     2.159000000    -1.164000000    -4.025000000
C     0.136000000    -1.597000000    -4.410000000
O     0.400000000    -2.903000000    -4.080000000
C    -1.161000000    -1.176000000    -4.559000000
C    -2.376000000    -2.066000000    -4.698000000
H    -3.157000000    -1.612000000    -5.311000000
C    -3.032000000    -2.352000000    -3.298000000
C    -4.136000000    -1.679000000    -2.811000000
H    -4.731000000    -0.980000000    -3.393000000
H    -2.003000000    -2.935000000    -5.244000000
C    -1.332000000     0.198000000    -4.706000000
H    -2.344000000     0.564000000    -4.860000000
C    -0.298000000     1.138000000    -4.660000000
C    -0.593000000     2.548000000    -4.791000000
H    -1.575000000     2.645000000    -5.257000000
H     0.073000000     3.077000000    -5.476000000
C    -0.649000000     3.239000000    -3.458000000
C    -1.933000000     3.503000000    -2.883000000
H    -2.854000000     3.299000000    -3.422000000
C     0.432000000     3.726000000    -2.752000000
C     0.262000000     4.216000000    -1.416000000
H     1.165000000     4.524000000    -0.895000000
C    -0.997000000     4.376000000    -0.841000000
O    -1.034000000     4.635000000     0.440000000
C    -1.364000000     3.543000000     1.328000000
C    -0.446000000     3.643000000     2.595000000
C    -0.916000000     3.062000000     3.773000000
H    -1.926000000     2.661000000     3.801000000
C     0.886000000     4.070000000     2.474000000
H     1.195000000     4.520000000     1.534000000
O    -2.773000000     3.560000000     1.655000000
H    -1.093000000     2.566000000     0.902000000
C    -2.091000000     3.992000000    -1.615000000
C    -3.538000000     4.014000000    -1.055000000
H    -4.231000000     4.182000000    -1.882000000
H    -3.496000000     4.859000000    -0.364000000
C    -3.897000000     2.739000000    -0.374000000
C    -4.514000000     1.570000000    -0.983000000
H    -4.925000000     1.648000000    -1.987000000
C    -3.536000000     2.710000000     0.974000000
C    -3.826000000     1.525000000     1.734000000
H    -3.380000000     1.397000000     2.717000000
C    -4.568000000     0.510000000     1.188000000
O    -4.616000000    -0.677000000     1.846000000
C    -3.579000000    -1.635000000     1.617000000
C    -3.198000000    -2.268000000     2.921000000
C    -3.521000000    -1.549000000     4.120000000
H    -3.966000000    -0.560000000     4.038000000
C    -2.552000000    -3.443000000     3.010000000
H    -2.394000000    -3.933000000     2.053000000
O    -4.028000000    -2.673000000     0.735000000
H    -2.705000000    -1.100000000     1.218000000
C    -4.922000000     0.520000000    -0.187000000
C    -5.529000000    -0.666000000    -0.887000000
H    -6.247000000    -0.287000000    -1.617000000
H    -6.093000000    -1.194000000    -0.115000000
C    -4.437000000    -1.653000000    -1.460000000
C    -3.849000000    -2.560000000    -0.632000000
C    -2.806000000    -3.334000000    -1.091000000
H    -2.377000000    -4.098000000    -0.448000000
C    -2.353000000    -3.243000000    -2.434000000
O    -1.341000000    -4.069000000    -2.908000000
C    -0.024000000    -3.407000000    -2.773000000
H    -0.217000000    -2.545000000    -2.118000000
C     1.102000000    -4.161000000    -2.007000000
C     2.342000000    -4.112000000    -2.671000000
H     2.432000000    -3.782000000    -3.703000000
C     1.006000000    -4.671000000    -0.759000000
H     0.006000000    -4.740000000    -0.338000000
C     2.121000000    -5.147000000    -0.097000000
O     1.996000000    -5.626000000     1.172000000
C     3.422000000    -5.040000000    -0.671000000
H     4.312000000    -5.396000000    -0.158000000
C     3.463000000    -4.664000000    -2.026000000
O     4.729000000    -4.672000000    -2.592000000
C     5.258000000    -3.546000000    -3.165000000
C     5.382000000    -2.381000000    -2.421000000
H     5.174000000    -2.422000000    -1.355000000
C     5.634000000    -3.490000000    -4.514000000
H     5.497000000    -4.360000000    -5.150000000
C     6.071000000    -2.295000000    -5.081000000
H     6.279000000    -2.245000000    -6.147000000
C     6.282000000    -1.114000000    -4.264000000
H     6.712000000    -0.183000000    -4.624000000
C     5.958000000    -1.190000000    -2.892000000
O     6.317000000    -0.083000000    -2.116000000
C     5.598000000     1.034000000    -1.992000000
C     6.055000000     2.082000000    -1.212000000
H     7.068000000     2.040000000    -0.820000000
C     5.353000000     3.297000000    -1.209000000
O     5.828000000     4.369000000    -0.469000000
C     4.857000000     4.898000000     0.399000000
C     4.445000000     4.246000000     1.560000000
H     4.683000000     3.205000000     1.759000000
C     4.548000000     6.267000000     0.187000000
H     5.028000000     6.849000000    -0.596000000
C     3.737000000     6.879000000     1.140000000
H     3.540000000     7.926000000     0.924000000
C     3.119000000     6.114000000     2.146000000
H     2.439000000     6.567000000     2.862000000
C     3.571000000     4.865000000     2.422000000
O     3.096000000     4.154000000     3.496000000
C     1.806000000     3.761000000     3.494000000
C     1.304000000     3.186000000     4.687000000
H     1.962000000     3.078000000     5.545000000
C    -0.001000000     2.908000000     4.833000000
O    -0.304000000     2.297000000     6.027000000
C    -1.537000000     1.791000000     6.320000000
C    -1.770000000     0.446000000     6.333000000
H    -0.948000000    -0.262000000     6.398000000
C    -2.495000000     2.751000000     6.627000000
H    -2.222000000     3.794000000     6.489000000
C    -3.798000000     2.292000000     6.884000000
H    -4.624000000     2.997000000     6.940000000
C    -4.146000000     0.973000000     6.835000000
H    -5.165000000     0.630000000     6.997000000
C    -3.116000000     0.043000000     6.580000000
O    -3.463000000    -1.298000000     6.523000000
C    -3.214000000    -2.072000000     5.390000000
C    -2.517000000    -3.264000000     5.442000000
H    -2.199000000    -3.628000000     6.416000000
C    -2.118000000    -3.902000000     4.251000000
O    -1.357000000    -5.026000000     4.299000000
C    -0.928000000    -5.750000000     3.173000000
C    -1.612000000    -6.844000000     2.667000000
H    -2.485000000    -7.231000000     3.187000000
C    -1.139000000    -7.464000000     1.502000000
H    -1.657000000    -8.340000000     1.121000000
C     0.125000000    -7.091000000     0.990000000
H     0.644000000    -7.534000000     0.143000000
C     0.847000000    -6.080000000     1.675000000
C     0.342000000    -5.434000000     2.750000000
H     0.960000000    -4.720000000     3.288000000
C     0.592000000    -0.787000000     2.618000000
H     0.316000000    -0.643000000     3.659000000
C    -0.258000000    -0.182000000     1.671000000
H    -1.162000000     0.353000000     1.950000000
C     0.044000000    -0.253000000     0.317000000
H    -0.566000000     0.279000000    -0.463000000
C     1.244000000    -0.933000000    -0.068000000
H     1.428000000    -1.008000000    -1.137000000
C     1.983000000    -1.674000000     0.868000000
H     2.824000000    -2.296000000     0.573000000
C     1.718000000    -1.588000000     2.262000000
C     2.672000000    -2.186000000     3.228000000
O     3.517000000    -2.956000000     2.805000000
O     2.616000000    -1.859000000     4.385000000
O     5.924000000    -0.192000000     2.488000000
H     5.097000000     0.285000000     2.413000000
H     6.069000000    -0.558000000     1.616000000
O     3.404000000    -5.543000000     6.191000000
H     3.505000000    -5.652000000     5.245000000
H     3.009000000    -4.678000000     6.292000000
O    -0.348000000    -2.309000000     7.995000000
H    -0.215000000    -1.417000000     8.319000000
H    -1.040000000    -2.665000000     8.552000000
O     6.744000000    -5.404000000     3.602000000
H     7.154000000    -6.265000000     3.520000000
H     5.804000000    -5.583000000     3.572000000
O     3.258000000    -2.819000000     9.530000000
H     3.906000000    -3.083000000     8.877000000
H     2.839000000    -3.637000000     9.797000000
O     1.556000000    -0.092000000     6.151000000
H     1.974000000    -0.737000000     5.579000000
H     1.064000000     0.473000000     5.555000000
O     9.061000000    -4.484000000     4.864000000
H     8.202000000    -4.427000000     4.445000000
H     9.229000000    -5.424000000     4.939000000
O     6.769000000    -5.400000000     0.766000000
H     7.561000000    -4.870000000     0.676000000
H     6.513000000    -5.296000000     1.682000000
O     6.655000000    -0.332000000     5.148000000
H     6.420000000    -1.224000000     5.403000000
H     6.380000000    -0.263000000     4.234000000
O     6.879000000     1.827000000     6.644000000
H     6.153000000     2.259000000     7.094000000
H     6.474000000     1.088000000     6.190000000
O     2.011000000     1.914000000     8.057000000
H     1.865000000     1.313000000     7.326000000
H     2.106000000     1.345000000     8.820000000
O     5.564000000    -2.900000000     1.015000000
H     5.597000000    -3.852000000     0.920000000
H     5.004000000    -2.755000000     1.778000000
O     1.691000000    -3.232000000     6.483000000
H     1.034000000    -2.748000000     6.984000000
H     2.118000000    -2.567000000     5.943000000
O     9.478000000    -1.709000000     2.132000000
H     9.540000000    -2.413000000     1.486000000
H     8.623000000    -1.838000000     2.544000000
O     0.706000000    -5.774000000     7.523000000
H     0.955000000    -5.126000000     6.864000000
H     1.415000000    -6.418000000     7.506000000
O     4.069000000    -5.442000000     3.209000000
H     3.932000000    -4.512000000     3.031000000
H     3.624000000    -5.891000000     2.490000000
O     3.243000000     1.055000000     1.730000000
H     2.656000000     1.811000000     1.721000000
H     2.662000000     0.299000000     1.639000000
O     5.112000000    -2.611000000     5.440000000
H     4.325000000    -2.244000000     5.036000000
H     5.490000000    -3.171000000     4.762000000
O     5.440000000    -4.075000000     7.702000000
H     5.174000000    -3.301000000     7.207000000
H     5.197000000    -4.813000000     7.142000000
