215
-1456.12009
C     4.166000000     3.168000000    -2.041000000
H     3.803000000     4.164000000    -2.279000000
C     3.441000000     2.055000000    -2.506000000
C     3.839000000     0.771000000    -2.043000000
H     3.354000000    -0.116000000    -2.443000000
C     2.176000000     2.240000000    -3.244000000
O     1.744000000     3.613000000    -3.317000000
H     1.540000000     1.624000000    -2.592000000
O     2.002000000     1.480000000    -4.441000000
C     0.854000000     0.685000000    -4.602000000
C     1.042000000    -0.701000000    -4.513000000
H     2.030000000    -1.134000000    -4.374000000
C    -0.072000000    -1.512000000    -4.481000000
O     0.182000000    -2.792000000    -4.199000000
C    -1.375000000    -1.022000000    -4.626000000
C    -2.668000000    -1.845000000    -4.702000000
H    -3.401000000    -1.463000000    -5.415000000
C    -3.201000000    -2.183000000    -3.360000000
C    -4.274000000    -1.410000000    -2.835000000
H    -4.805000000    -0.671000000    -3.429000000
H    -2.533000000    -2.795000000    -5.222000000
C    -1.532000000     0.365000000    -4.819000000
H    -2.553000000     0.718000000    -4.936000000
C    -0.435000000     1.220000000    -4.732000000
C    -0.563000000     2.686000000    -4.899000000
H    -1.483000000     2.953000000    -5.424000000
H     0.268000000     3.148000000    -5.436000000
C    -0.714000000     3.470000000    -3.582000000
C    -2.002000000     3.693000000    -2.999000000
H    -2.862000000     3.362000000    -3.577000000
C     0.430000000     3.852000000    -2.885000000
C     0.296000000     4.570000000    -1.662000000
H     1.149000000     5.025000000    -1.165000000
C    -0.937000000     4.739000000    -1.069000000
O    -0.923000000     5.051000000     0.247000000
C    -1.115000000     3.842000000     1.075000000
C    -0.112000000     3.693000000     2.180000000
C    -0.444000000     2.962000000     3.337000000
H    -1.404000000     2.450000000     3.338000000
C     1.079000000     4.407000000     2.156000000
H     1.182000000     5.097000000     1.323000000
O    -2.510000000     3.764000000     1.614000000
H    -0.979000000     2.946000000     0.451000000
C    -2.056000000     4.216000000    -1.707000000
C    -3.505000000     4.252000000    -1.117000000
H    -4.237000000     4.254000000    -1.927000000
H    -3.652000000     5.093000000    -0.436000000
C    -3.701000000     2.916000000    -0.286000000
C    -4.448000000     1.867000000    -0.888000000
H    -4.824000000     1.951000000    -1.905000000
C    -3.280000000     2.778000000     1.016000000
C    -3.664000000     1.662000000     1.746000000
H    -3.374000000     1.673000000     2.794000000
C    -4.330000000     0.599000000     1.152000000
O    -4.518000000    -0.549000000     1.849000000
C    -3.536000000    -1.679000000     1.658000000
C    -3.273000000    -2.322000000     2.954000000
C    -3.225000000    -1.502000000     4.129000000
H    -3.580000000    -0.475000000     4.155000000
C    -2.830000000    -3.582000000     3.012000000
H    -2.731000000    -4.095000000     2.059000000
O    -4.125000000    -2.564000000     0.700000000
H    -2.591000000    -1.295000000     1.247000000
C    -4.750000000     0.671000000    -0.173000000
C    -5.543000000    -0.413000000    -0.886000000
H    -6.176000000     0.068000000    -1.635000000
H    -6.233000000    -0.886000000    -0.185000000
C    -4.616000000    -1.505000000    -1.451000000
C    -3.937000000    -2.358000000    -0.643000000
C    -3.051000000    -3.192000000    -1.230000000
H    -2.504000000    -3.864000000    -0.574000000
C    -2.629000000    -3.143000000    -2.564000000
O    -1.521000000    -3.888000000    -2.897000000
C    -0.210000000    -3.231000000    -2.846000000
H    -0.252000000    -2.347000000    -2.194000000
C     0.765000000    -4.220000000    -2.279000000
C     2.058000000    -4.393000000    -2.835000000
H     2.365000000    -4.011000000    -3.806000000
C     0.483000000    -4.718000000    -0.994000000
H    -0.505000000    -4.556000000    -0.573000000
C     1.440000000    -5.400000000    -0.284000000
O     1.128000000    -5.844000000     0.982000000
C     2.689000000    -5.575000000    -0.826000000
H     3.509000000    -5.997000000    -0.250000000
C     3.023000000    -5.065000000    -2.069000000
O     4.406000000    -5.073000000    -2.478000000
C     5.115000000    -3.877000000    -2.647000000
C     4.976000000    -2.906000000    -1.654000000
H     4.496000000    -3.048000000    -0.690000000
C     5.795000000    -3.696000000    -3.835000000
H     5.738000000    -4.460000000    -4.606000000
C     6.413000000    -2.467000000    -4.044000000
H     7.003000000    -2.262000000    -4.934000000
C     6.295000000    -1.429000000    -3.085000000
H     6.627000000    -0.434000000    -3.370000000
C     5.556000000    -1.614000000    -1.918000000
O     5.370000000    -0.639000000    -0.939000000
C     4.980000000     0.626000000    -1.319000000
C     5.651000000     1.722000000    -0.819000000
H     6.513000000     1.583000000    -0.171000000
C     5.228000000     2.985000000    -1.171000000
O     5.884000000     4.034000000    -0.667000000
C     5.239000000     4.891000000     0.302000000
C     4.270000000     4.455000000     1.172000000
H     4.014000000     3.399000000     1.178000000
C     5.678000000     6.200000000     0.269000000
H     6.367000000     6.546000000    -0.496000000
C     5.278000000     7.129000000     1.233000000
H     5.609000000     8.164000000     1.241000000
C     4.419000000     6.620000000     2.167000000
H     4.079000000     7.257000000     2.980000000
C     3.911000000     5.348000000     2.146000000
O     3.152000000     5.017000000     3.294000000
C     2.005000000     4.265000000     3.210000000
C     1.588000000     3.644000000     4.333000000
H     2.268000000     3.554000000     5.176000000
C     0.427000000     2.906000000     4.408000000
O     0.185000000     2.302000000     5.643000000
C    -1.054000000     1.869000000     5.993000000
C    -1.313000000     0.502000000     5.939000000
H    -0.526000000    -0.163000000     5.593000000
C    -1.937000000     2.767000000     6.562000000
H    -1.547000000     3.751000000     6.811000000
C    -3.062000000     2.229000000     7.177000000
H    -3.695000000     2.885000000     7.770000000
C    -3.330000000     0.884000000     7.087000000
H    -4.190000000     0.447000000     7.588000000
C    -2.547000000     0.020000000     6.377000000
O    -2.748000000    -1.309000000     6.483000000
C    -2.778000000    -2.084000000     5.313000000
C    -2.519000000    -3.458000000     5.379000000
H    -2.322000000    -3.938000000     6.335000000
C    -2.466000000    -4.210000000     4.207000000
O    -2.231000000    -5.626000000     4.230000000
C    -1.724000000    -6.260000000     3.163000000
C    -2.245000000    -7.443000000     2.599000000
H    -3.120000000    -7.932000000     3.019000000
C    -1.664000000    -8.030000000     1.454000000
H    -2.141000000    -8.912000000     1.036000000
C    -0.535000000    -7.468000000     0.918000000
H     0.092000000    -7.927000000     0.158000000
C    -0.026000000    -6.355000000     1.502000000
C    -0.576000000    -5.699000000     2.608000000
H    -0.060000000    -4.824000000     2.994000000
C     0.296000000    -0.702000000     2.277000000
H    -0.037000000    -0.518000000     3.295000000
C    -0.366000000    -0.093000000     1.204000000
H    -1.236000000     0.545000000     1.331000000
C     0.030000000    -0.198000000    -0.125000000
H    -0.483000000     0.304000000    -0.892000000
C     1.155000000    -0.934000000    -0.462000000
H     1.395000000    -1.062000000    -1.515000000
C     1.816000000    -1.578000000     0.612000000
H     2.713000000    -2.149000000     0.383000000
C     1.366000000    -1.517000000     1.919000000
C     2.139000000    -2.263000000     2.981000000
O     3.000000000    -3.046000000     2.662000000
O     1.840000000    -2.033000000     4.202000000
O     1.734000000    -6.958000000     4.784000000
H     1.527000000    -6.163000000     5.274000000
H     1.158000000    -7.626000000     5.156000000
O     5.241000000     0.338000000     2.371000000
H     4.615000000    -0.276000000     1.987000000
H     4.728000000     1.128000000     2.542000000
O     3.675000000    -7.765000000     6.586000000
H     2.802000000    -7.486000000     6.310000000
H     3.613000000    -8.718000000     6.650000000
O     7.978000000    -0.875000000     0.359000000
H     7.150000000    -1.349000000     0.436000000
H     7.925000000    -0.190000000     1.026000000
O     0.511000000    -1.333000000     8.093000000
H     0.338000000    -0.657000000     8.749000000
H    -0.275000000    -1.880000000     8.101000000
O     5.064000000    -5.928000000     4.918000000
H     4.540000000    -6.433000000     5.539000000
H     4.678000000    -6.122000000     4.064000000
O    -0.878000000    -5.872000000     6.860000000
H    -0.284000000    -5.411000000     6.268000000
H    -0.301000000    -6.336000000     7.466000000
O     2.393000000    -0.570000000     6.372000000
H     2.081000000    -1.021000000     5.587000000
H     1.866000000    -0.935000000     7.083000000
O     7.632000000    -4.544000000     0.980000000
H     6.821000000    -4.217000000     1.369000000
H     7.920000000    -5.238000000     1.573000000
O     5.321000000    -0.653000000     6.755000000
H     5.285000000    -1.484000000     6.280000000
H     4.412000000    -0.357000000     6.790000000
O     3.365000000     1.890000000     7.416000000
H     3.171000000     1.182000000     6.802000000
H     3.996000000     2.442000000     6.954000000
O     5.606000000    -3.074000000     2.209000000
H     5.969000000    -2.910000000     3.080000000
H     4.688000000    -3.292000000     2.370000000
O     5.203000000    -7.450000000     1.024000000
H     4.527000000    -6.974000000     1.506000000
H     6.003000000    -7.308000000     1.530000000
O     1.188000000    -4.549000000     5.669000000
H     1.592000000    -4.152000000     6.441000000
H     1.019000000    -3.812000000     5.082000000
O     2.049000000    -3.541000000     8.233000000
H     1.783000000    -4.124000000     8.944000000
H     1.461000000    -2.789000000     8.307000000
O     6.969000000     0.004000000     4.585000000
H     6.492000000     0.123000000     3.763000000
H     6.287000000    -0.167000000     5.234000000
O     3.388000000    -6.089000000     2.703000000
H     2.918000000    -5.292000000     2.458000000
H     2.744000000    -6.609000000     3.183000000
O     2.472000000     1.310000000     1.809000000
H     1.849000000     0.611000000     1.607000000
H     1.924000000     2.049000000     2.075000000
O     4.751000000    -3.206000000     5.172000000
H     3.868000000    -2.984000000     4.877000000
H     4.841000000    -4.139000000     4.979000000
