215
-1441.62496
C     4.072000000     3.274000000    -1.065000000
H     3.406000000     4.133000000    -1.056000000
C     3.639000000     2.207000000    -1.942000000
C     4.598000000     1.124000000    -2.042000000
H     4.456000000     0.310000000    -2.748000000
C     2.321000000     2.271000000    -2.771000000
O     1.878000000     3.640000000    -2.980000000
H     1.602000000     1.710000000    -2.156000000
O     2.408000000     1.557000000    -3.919000000
C     1.390000000     0.814000000    -4.300000000
C     1.643000000    -0.517000000    -4.098000000
H     2.606000000    -0.876000000    -3.744000000
C     0.648000000    -1.501000000    -4.368000000
O     1.022000000    -2.767000000    -3.979000000
C    -0.604000000    -1.180000000    -4.848000000
C    -1.775000000    -2.149000000    -5.059000000
H    -2.438000000    -1.713000000    -5.809000000
C    -2.436000000    -2.438000000    -3.744000000
C    -3.468000000    -1.584000000    -3.343000000
H    -3.873000000    -0.754000000    -3.915000000
H    -1.496000000    -3.072000000    -5.572000000
C    -0.873000000     0.199000000    -4.980000000
H    -1.872000000     0.483000000    -5.302000000
C     0.103000000     1.150000000    -4.728000000
C    -0.216000000     2.675000000    -4.956000000
H    -1.124000000     2.723000000    -5.561000000
H     0.602000000     3.189000000    -5.465000000
C    -0.480000000     3.347000000    -3.595000000
C    -1.838000000     3.411000000    -3.135000000
H    -2.673000000     2.960000000    -3.664000000
C     0.512000000     3.827000000    -2.713000000
C     0.137000000     4.290000000    -1.438000000
H     0.945000000     4.545000000    -0.757000000
C    -1.134000000     4.431000000    -0.991000000
O    -1.391000000     4.867000000     0.275000000
C    -1.669000000     3.755000000     1.189000000
C    -0.901000000     3.880000000     2.430000000
C    -1.250000000     3.173000000     3.568000000
H    -2.185000000     2.620000000     3.598000000
C     0.272000000     4.697000000     2.421000000
H     0.674000000     5.247000000     1.574000000
O    -3.019000000     3.660000000     1.439000000
H    -1.320000000     2.827000000     0.713000000
C    -2.145000000     4.020000000    -1.868000000
C    -3.591000000     4.035000000    -1.452000000
H    -4.240000000     4.176000000    -2.319000000
H    -3.735000000     4.985000000    -0.933000000
C    -3.874000000     2.784000000    -0.680000000
C    -4.335000000     1.708000000    -1.436000000
H    -4.463000000     1.688000000    -2.515000000
C    -3.641000000     2.651000000     0.711000000
C    -4.083000000     1.457000000     1.383000000
H    -3.883000000     1.354000000     2.446000000
C    -4.411000000     0.400000000     0.585000000
O    -4.648000000    -0.790000000     1.234000000
C    -3.614000000    -1.817000000     1.188000000
C    -3.320000000    -2.474000000     2.509000000
C    -3.675000000    -1.786000000     3.647000000
H    -4.400000000    -0.984000000     3.536000000
C    -2.391000000    -3.557000000     2.689000000
H    -2.049000000    -4.001000000     1.757000000
O    -4.010000000    -2.760000000     0.147000000
H    -2.644000000    -1.506000000     0.773000000
C    -4.555000000     0.459000000    -0.785000000
C    -5.095000000    -0.684000000    -1.609000000
H    -5.600000000    -0.326000000    -2.508000000
H    -5.789000000    -1.219000000    -0.958000000
C    -3.992000000    -1.652000000    -2.052000000
C    -3.515000000    -2.633000000    -1.142000000
C    -2.496000000    -3.504000000    -1.572000000
H    -2.075000000    -4.182000000    -0.835000000
C    -1.955000000    -3.347000000    -2.815000000
O    -0.786000000    -4.010000000    -3.038000000
C     0.440000000    -3.317000000    -2.760000000
H     0.197000000    -2.535000000    -2.025000000
C     1.452000000    -4.240000000    -1.968000000
C     2.808000000    -3.981000000    -2.016000000
H     3.208000000    -3.291000000    -2.754000000
C     0.943000000    -5.274000000    -1.169000000
H    -0.130000000    -5.450000000    -1.186000000
C     1.798000000    -5.980000000    -0.348000000
O     1.370000000    -6.963000000     0.501000000
C     3.127000000    -5.614000000    -0.227000000
H     3.751000000    -6.174000000     0.465000000
C     3.646000000    -4.668000000    -1.065000000
O     4.920000000    -4.422000000    -0.973000000
C     5.553000000    -3.431000000    -1.630000000
C     5.762000000    -2.152000000    -1.110000000
H     5.638000000    -1.873000000    -0.067000000
C     5.868000000    -3.667000000    -2.917000000
H     5.739000000    -4.678000000    -3.295000000
C     6.475000000    -2.626000000    -3.726000000
H     6.803000000    -2.842000000    -4.739000000
C     6.748000000    -1.428000000    -3.140000000
H     7.359000000    -0.715000000    -3.687000000
C     6.359000000    -1.194000000    -1.860000000
O     6.668000000     0.027000000    -1.348000000
C     5.820000000     1.117000000    -1.366000000
C     6.180000000     2.203000000    -0.573000000
H     7.063000000     2.147000000     0.060000000
C     5.297000000     3.218000000    -0.375000000
O     5.672000000     4.193000000     0.559000000
C     4.829000000     5.146000000     1.015000000
C     3.929000000     4.796000000     1.997000000
H     4.061000000     3.810000000     2.437000000
C     4.798000000     6.392000000     0.448000000
H     5.426000000     6.587000000    -0.417000000
C     3.953000000     7.362000000     0.977000000
H     3.977000000     8.352000000     0.528000000
C     3.058000000     7.007000000     1.953000000
H     2.370000000     7.748000000     2.353000000
C     3.085000000     5.702000000     2.523000000
O     2.309000000     5.376000000     3.592000000
C     1.098000000     4.691000000     3.543000000
C     0.726000000     3.901000000     4.646000000
H     1.366000000     3.918000000     5.525000000
C    -0.460000000     3.178000000     4.691000000
O    -0.853000000     2.396000000     5.807000000
C    -2.128000000     1.873000000     6.107000000
C    -2.334000000     0.549000000     5.853000000
H    -1.508000000    -0.073000000     5.519000000
C    -3.221000000     2.608000000     6.611000000
H    -3.067000000     3.670000000     6.782000000
C    -4.445000000     2.006000000     6.883000000
H    -5.237000000     2.700000000     7.151000000
C    -4.656000000     0.678000000     6.616000000
H    -5.591000000     0.165000000     6.827000000
C    -3.574000000    -0.031000000     6.108000000
O    -3.631000000    -1.382000000     5.993000000
C    -3.200000000    -2.122000000     4.903000000
C    -2.498000000    -3.306000000     5.085000000
H    -2.241000000    -3.690000000     6.069000000
C    -2.053000000    -4.040000000     3.920000000
O    -1.235000000    -5.165000000     4.100000000
C    -1.073000000    -6.048000000     3.049000000
C    -2.131000000    -6.773000000     2.589000000
H    -3.145000000    -6.625000000     2.950000000
C    -1.963000000    -7.643000000     1.495000000
H    -2.822000000    -8.169000000     1.085000000
C    -0.827000000    -7.785000000     0.774000000
H    -0.644000000    -8.464000000    -0.054000000
C     0.174000000    -6.910000000     1.152000000
C     0.082000000    -6.128000000     2.324000000
H     0.935000000    -5.583000000     2.721000000
C     0.810000000    -0.526000000     3.130000000
H     1.152000000     0.066000000     3.975000000
C     0.175000000     0.166000000     2.028000000
H     0.065000000     1.245000000     2.102000000
C    -0.101000000    -0.441000000     0.800000000
H    -0.575000000     0.170000000     0.033000000
C     0.111000000    -1.792000000     0.691000000
H    -0.241000000    -2.318000000    -0.192000000
C     0.605000000    -2.513000000     1.717000000
H     0.700000000    -3.578000000     1.521000000
C     0.970000000    -1.943000000     2.952000000
C     1.599000000    -2.702000000     4.068000000
O     2.117000000    -3.772000000     3.744000000
O     1.916000000    -2.164000000     5.107000000
O     5.507000000     0.136000000     7.476000000
H     4.885000000     0.134000000     6.748000000
H     5.611000000    -0.787000000     7.705000000
O     3.165000000     1.125000000     1.953000000
H     2.353000000     0.620000000     1.913000000
H     3.559000000     1.015000000     1.088000000
O    -0.086000000    -6.725000000     6.087000000
H    -0.540000000    -6.427000000     5.299000000
H     0.590000000    -7.320000000     5.764000000
O     5.715000000    -6.145000000     7.390000000
H     5.149000000    -5.395000000     7.209000000
H     6.594000000    -5.772000000     7.451000000
O     1.957000000     0.961000000     7.633000000
H     1.249000000     1.220000000     8.222000000
H     1.898000000     1.576000000     6.902000000
O     6.149000000    -2.506000000     7.760000000
H     5.467000000    -2.936000000     7.244000000
H     6.558000000    -3.217000000     8.255000000
O     4.263000000    -3.675000000     6.504000000
H     3.536000000    -3.121000000     6.787000000
H     3.886000000    -4.236000000     5.825000000
O     3.902000000     2.051000000     4.472000000
H     3.973000000     1.282000000     5.038000000
H     3.577000000     1.706000000     3.641000000
O     6.312000000    -1.620000000     2.789000000
H     6.882000000    -2.102000000     2.190000000
H     6.828000000    -1.530000000     3.590000000
O     4.362000000    -7.304000000     2.908000000
H     5.133000000    -6.934000000     2.477000000
H     4.209000000    -6.731000000     3.659000000
O    -1.166000000    -2.051000000     8.514000000
H    -0.791000000    -2.822000000     8.089000000
H    -1.637000000    -1.598000000     7.814000000
O     0.328000000    -3.978000000     6.819000000
H     0.762000000    -3.486000000     6.122000000
H     0.190000000    -4.849000000     6.446000000
O     6.891000000    -4.579000000     4.586000000
H     6.297000000    -4.037000000     5.105000000
H     6.376000000    -4.835000000     3.821000000
O     3.908000000    -2.966000000     1.936000000
H     3.417000000    -3.236000000     2.712000000
H     4.597000000    -2.395000000     2.276000000
O     2.654000000    -1.507000000     7.579000000
H     2.396000000    -0.645000000     7.906000000
H     2.200000000    -1.590000000     6.741000000
O     5.791000000    -5.104000000     2.059000000
H     5.158000000    -4.455000000     1.750000000
H     6.464000000    -5.125000000     1.379000000
O     3.083000000    -5.910000000     4.874000000
H     2.719000000    -5.136000000     4.444000000
H     2.480000000    -6.617000000     4.647000000
O     2.940000000    -0.833000000    -0.147000000
H     3.380000000    -1.531000000     0.339000000
H     2.007000000    -1.009000000    -0.028000000
O     4.173000000    -0.743000000     5.083000000
H     4.815000000    -0.936000000     4.400000000
H     3.511000000    -1.428000000     4.989000000
