215
-1441.89347
C    -3.979000000    -1.741000000    -3.716000000
H    -3.972000000    -0.888000000    -4.389000000
C    -4.167000000    -1.660000000    -2.303000000
C    -3.957000000    -2.811000000    -1.553000000
H    -4.109000000    -2.719000000    -0.480000000
C    -4.180000000    -0.279000000    -1.609000000
O    -4.539000000     0.830000000    -2.426000000
H    -3.156000000    -0.076000000    -1.260000000
O    -5.085000000    -0.240000000    -0.496000000
C    -4.651000000     0.317000000     0.651000000
C    -4.087000000    -0.508000000     1.618000000
H    -3.988000000    -1.584000000     1.504000000
C    -3.531000000    -0.002000000     2.776000000
O    -2.908000000    -0.927000000     3.600000000
C    -3.607000000     1.397000000     3.049000000
C    -2.954000000     1.982000000     4.296000000
H    -3.353000000     2.990000000     4.428000000
C    -1.433000000     2.154000000     4.281000000
C    -0.900000000     3.315000000     3.687000000
H    -1.559000000     4.107000000     3.342000000
H    -3.311000000     1.432000000     5.170000000
C    -4.038000000     2.209000000     1.973000000
H    -4.037000000     3.285000000     2.127000000
C    -4.560000000     1.721000000     0.777000000
C    -4.988000000     2.678000000    -0.252000000
H    -5.022000000     3.668000000     0.208000000
H    -5.995000000     2.460000000    -0.615000000
C    -3.986000000     2.903000000    -1.312000000
C    -3.088000000     3.931000000    -1.186000000
H    -3.198000000     4.715000000    -0.441000000
C    -3.781000000     1.971000000    -2.329000000
C    -2.670000000     2.050000000    -3.153000000
H    -2.557000000     1.318000000    -3.948000000
C    -1.699000000     2.985000000    -2.923000000
O    -0.606000000     2.880000000    -3.669000000
C     0.611000000     2.395000000    -3.000000000
C     1.365000000     1.382000000    -3.884000000
C     2.576000000     0.866000000    -3.453000000
H     3.047000000     1.219000000    -2.539000000
C     0.649000000     0.847000000    -4.942000000
H    -0.363000000     1.172000000    -5.166000000
O     1.458000000     3.467000000    -2.582000000
H     0.329000000     1.921000000    -2.049000000
C    -1.951000000     3.964000000    -1.953000000
C    -0.948000000     5.051000000    -1.654000000
H    -1.446000000     5.822000000    -1.061000000
H    -0.657000000     5.537000000    -2.588000000
C     0.230000000     4.631000000    -0.790000000
C     0.131000000     4.956000000     0.631000000
H    -0.752000000     5.377000000     1.104000000
C     1.359000000     4.038000000    -1.368000000
C     2.447000000     3.873000000    -0.566000000
H     3.293000000     3.338000000    -0.989000000
C     2.367000000     4.087000000     0.786000000
O     3.358000000     3.659000000     1.588000000
C     3.028000000     2.307000000     2.202000000
C     4.302000000     1.467000000     2.167000000
C     5.173000000     1.478000000     1.029000000
H     5.015000000     2.171000000     0.206000000
C     4.655000000     0.550000000     3.192000000
H     4.069000000     0.545000000     4.108000000
O     2.683000000     2.551000000     3.540000000
H     2.193000000     1.822000000     1.676000000
C     1.244000000     4.692000000     1.391000000
C     1.002000000     4.802000000     2.894000000
H     0.441000000     5.673000000     3.239000000
H     1.938000000     4.985000000     3.426000000
C     0.453000000     3.531000000     3.481000000
C     1.335000000     2.469000000     3.932000000
C     0.833000000     1.290000000     4.501000000
H     1.587000000     0.545000000     4.742000000
C    -0.517000000     1.145000000     4.661000000
O    -0.951000000    -0.148000000     4.860000000
C    -1.476000000    -0.891000000     3.652000000
H    -1.011000000    -0.472000000     2.748000000
C    -0.972000000    -2.270000000     3.717000000
C    -1.842000000    -3.335000000     3.358000000
H    -2.885000000    -3.159000000     3.107000000
C     0.405000000    -2.506000000     3.978000000
H     1.026000000    -1.641000000     4.195000000
C     0.883000000    -3.791000000     3.818000000
O     2.188000000    -4.109000000     4.041000000
C     0.093000000    -4.824000000     3.462000000
H     0.382000000    -5.855000000     3.277000000
C    -1.293000000    -4.599000000     3.255000000
O    -2.152000000    -5.674000000     2.966000000
C    -3.167000000    -5.603000000     2.057000000
C    -3.013000000    -5.617000000     0.693000000
H    -2.054000000    -5.810000000     0.220000000
C    -4.355000000    -5.238000000     2.581000000
H    -4.511000000    -5.179000000     3.655000000
C    -5.419000000    -4.943000000     1.729000000
H    -6.358000000    -4.592000000     2.149000000
C    -5.257000000    -5.016000000     0.327000000
H    -6.102000000    -4.807000000    -0.323000000
C    -3.984000000    -5.306000000    -0.158000000
O    -3.683000000    -5.288000000    -1.493000000
C    -3.665000000    -4.041000000    -2.173000000
C    -3.420000000    -4.107000000    -3.504000000
H    -3.126000000    -5.046000000    -3.966000000
C    -3.618000000    -2.975000000    -4.289000000
O    -3.442000000    -3.013000000    -5.657000000
C    -2.683000000    -2.117000000    -6.375000000
C    -1.384000000    -1.798000000    -6.013000000
H    -0.800000000    -2.291000000    -5.241000000
C    -3.367000000    -1.507000000    -7.434000000
H    -4.392000000    -1.810000000    -7.630000000
C    -2.662000000    -0.660000000    -8.257000000
H    -3.157000000    -0.116000000    -9.058000000
C    -1.362000000    -0.329000000    -7.952000000
H    -0.834000000     0.364000000    -8.602000000
C    -0.729000000    -0.886000000    -6.854000000
O     0.603000000    -0.645000000    -6.796000000
C     1.224000000    -0.231000000    -5.616000000
C     2.447000000    -0.794000000    -5.183000000
H     2.871000000    -1.638000000    -5.720000000
C     3.160000000    -0.191000000    -4.159000000
O     4.453000000    -0.679000000    -3.844000000
C     5.494000000     0.102000000    -3.284000000
C     5.884000000    -0.075000000    -1.967000000
H     5.424000000    -0.799000000    -1.299000000
C     6.128000000     1.043000000    -4.090000000
H     5.797000000     1.197000000    -5.114000000
C     7.218000000     1.719000000    -3.492000000
H     7.775000000     2.404000000    -4.126000000
C     7.576000000     1.538000000    -2.185000000
H     8.361000000     2.174000000    -1.783000000
C     6.852000000     0.748000000    -1.434000000
O     7.196000000     0.621000000    -0.118000000
C     6.345000000     0.609000000     0.971000000
C     6.578000000    -0.254000000     2.071000000
H     7.443000000    -0.898000000     1.933000000
C     5.753000000    -0.353000000     3.152000000
O     6.021000000    -1.188000000     4.213000000
C     5.050000000    -1.925000000     4.888000000
C     5.040000000    -1.965000000     6.283000000
H     5.844000000    -1.507000000     6.853000000
C     4.046000000    -2.696000000     6.912000000
H     4.032000000    -2.858000000     7.987000000
C     3.045000000    -3.364000000     6.147000000
H     2.333000000    -4.014000000     6.648000000
C     3.077000000    -3.346000000     4.775000000
C     4.052000000    -2.551000000     4.125000000
H     4.197000000    -2.704000000     3.058000000
C     2.127000000    -1.419000000     0.431000000
H     3.065000000    -1.688000000     0.910000000
C     1.301000000    -0.448000000     1.023000000
H     1.603000000    -0.064000000     1.994000000
C     0.220000000     0.021000000     0.311000000
H    -0.296000000     0.819000000     0.784000000
C    -0.130000000    -0.552000000    -0.855000000
H    -1.003000000    -0.259000000    -1.431000000
C     0.738000000    -1.536000000    -1.387000000
H     0.486000000    -1.891000000    -2.383000000
C     1.861000000    -2.022000000    -0.772000000
C     2.685000000    -3.128000000    -1.282000000
O     2.362000000    -3.579000000    -2.354000000
O     3.566000000    -3.620000000    -0.608000000
O     0.177000000    -4.792000000    -4.565000000
H     0.803000000    -4.211000000    -4.132000000
H    -0.260000000    -5.251000000    -3.848000000
O     2.996000000    -6.481000000    -2.504000000
H     3.020000000    -5.622000000    -2.083000000
H     2.134000000    -6.833000000    -2.280000000
O     0.616000000    -6.810000000    -6.441000000
H     0.639000000    -6.335000000    -5.610000000
H    -0.116000000    -6.421000000    -6.919000000
O     1.955000000    -8.591000000    -0.281000000
H     1.901000000    -7.637000000    -0.224000000
H     1.358000000    -8.907000000     0.397000000
O     5.872000000    -2.872000000     0.321000000
H     5.000000000    -3.201000000     0.102000000
H     6.410000000    -3.095000000    -0.439000000
O     4.278000000    -3.584000000    -4.233000000
H     3.608000000    -3.629000000    -3.551000000
H     4.526000000    -2.661000000    -4.265000000
O     4.298000000    -5.763000000     3.360000000
H     3.714000000    -5.312000000     3.969000000
H     4.239000000    -6.685000000     3.610000000
O    -0.317000000    -4.377000000    -1.911000000
H     0.623000000    -4.270000000    -2.053000000
H    -0.521000000    -3.780000000    -1.192000000
O     5.594000000    -4.854000000    -2.031000000
H     4.867000000    -4.481000000    -1.533000000
H     5.343000000    -4.736000000    -2.947000000
O     4.731000000    -8.961000000     1.424000000
H     5.042000000    -8.893000000     2.327000000
H     3.907000000    -8.474000000     1.418000000
O     3.771000000    -6.220000000    -5.263000000
H     3.475000000    -6.500000000    -4.397000000
H     4.202000000    -5.380000000    -5.109000000
O     5.549000000    -1.887000000    -6.735000000
H     5.796000000    -2.496000000    -7.431000000
H     5.116000000    -1.165000000    -7.191000000
O     0.024000000    -6.996000000    -2.347000000
H     0.025000000    -6.175000000    -1.854000000
H    -0.576000000    -7.564000000    -1.864000000
O     2.239000000    -4.008000000    -6.777000000
H     1.626000000    -4.139000000    -6.053000000
H     3.072000000    -4.346000000    -6.449000000
O     6.790000000    -5.099000000     3.460000000
H     7.173000000    -5.641000000     2.769000000
H     5.847000000    -5.250000000     3.387000000
O     2.281000000    -5.634000000     0.528000000
H     2.941000000    -5.648000000     1.221000000
H     2.658000000    -5.073000000    -0.150000000
O     8.836000000    -2.931000000     0.716000000
H     9.347000000    -3.415000000     0.068000000
H     7.982000000    -3.363000000     0.719000000
O     5.019000000    -8.476000000    -3.398000000
H     4.576000000    -7.833000000    -2.845000000
H     4.434000000    -9.233000000    -3.403000000
O     8.833000000    -4.302000000    -2.711000000
H     9.012000000    -4.857000000    -3.469000000
H     8.026000000    -4.657000000    -2.338000000
