215
-1444.58392
C     3.641000000     2.764000000    -1.536000000
H     2.992000000     3.609000000    -1.319000000
C     3.280000000     1.796000000    -2.469000000
C     4.170000000     0.789000000    -2.713000000
H     3.865000000    -0.043000000    -3.344000000
C     1.904000000     1.682000000    -3.034000000
O     1.382000000     3.017000000    -3.382000000
H     1.243000000     1.253000000    -2.266000000
O     1.921000000     0.879000000    -4.249000000
C     0.849000000     0.024000000    -4.482000000
C     0.972000000    -1.304000000    -4.009000000
H     1.912000000    -1.597000000    -3.549000000
C    -0.043000000    -2.242000000    -4.108000000
O     0.288000000    -3.581000000    -3.738000000
C    -1.316000000    -1.816000000    -4.446000000
C    -2.515000000    -2.784000000    -4.447000000
H    -3.299000000    -2.321000000    -5.049000000
C    -3.010000000    -3.001000000    -3.006000000
C    -3.933000000    -2.029000000    -2.540000000
H    -4.267000000    -1.212000000    -3.174000000
H    -2.377000000    -3.762000000    -4.914000000
C    -1.442000000    -0.529000000    -4.904000000
H    -2.396000000    -0.118000000    -5.222000000
C    -0.426000000     0.460000000    -4.768000000
C    -0.777000000     1.885000000    -5.082000000
H    -1.723000000     1.855000000    -5.628000000
H    -0.064000000     2.434000000    -5.701000000
C    -0.925000000     2.745000000    -3.764000000
C    -2.236000000     2.971000000    -3.295000000
H    -3.068000000     2.513000000    -3.823000000
C     0.114000000     3.205000000    -2.940000000
C    -0.131000000     3.975000000    -1.819000000
H     0.695000000     4.449000000    -1.295000000
C    -1.406000000     4.242000000    -1.376000000
O    -1.479000000     4.753000000    -0.100000000
C    -1.461000000     3.927000000     1.088000000
C    -0.690000000     4.565000000     2.259000000
C    -0.990000000     4.205000000     3.622000000
H    -1.864000000     3.583000000     3.800000000
C     0.528000000     5.208000000     2.079000000
H     0.868000000     5.361000000     1.058000000
O    -2.898000000     3.714000000     1.400000000
H    -1.067000000     2.920000000     0.885000000
C    -2.508000000     3.719000000    -2.103000000
C    -3.872000000     3.828000000    -1.524000000
H    -4.548000000     3.752000000    -2.379000000
H    -3.979000000     4.784000000    -1.009000000
C    -3.970000000     2.649000000    -0.543000000
C    -4.608000000     1.462000000    -1.029000000
H    -4.888000000     1.276000000    -2.063000000
C    -3.575000000     2.681000000     0.809000000
C    -3.756000000     1.531000000     1.649000000
H    -3.375000000     1.564000000     2.666000000
C    -4.297000000     0.366000000     1.129000000
O    -4.269000000    -0.762000000     1.949000000
C    -3.133000000    -1.610000000     1.823000000
C    -2.453000000    -1.922000000     3.164000000
C    -2.269000000    -0.897000000     4.102000000
H    -2.802000000     0.033000000     3.922000000
C    -1.905000000    -3.150000000     3.439000000
H    -2.041000000    -3.913000000     2.677000000
O    -3.732000000    -2.797000000     1.180000000
H    -2.355000000    -1.207000000     1.157000000
C    -4.677000000     0.348000000    -0.211000000
C    -5.296000000    -0.934000000    -0.790000000
H    -5.816000000    -0.611000000    -1.694000000
H    -6.106000000    -1.234000000    -0.121000000
C    -4.252000000    -2.000000000    -1.112000000
C    -3.655000000    -2.889000000    -0.203000000
C    -2.783000000    -3.845000000    -0.753000000
H    -2.369000000    -4.586000000    -0.073000000
C    -2.509000000    -3.886000000    -2.137000000
O    -1.381000000    -4.673000000    -2.502000000
C    -0.063000000    -3.980000000    -2.452000000
H    -0.170000000    -3.036000000    -1.898000000
C     1.026000000    -4.854000000    -1.903000000
C     2.346000000    -4.531000000    -2.331000000
H     2.527000000    -3.817000000    -3.131000000
C     0.800000000    -5.495000000    -0.654000000
H    -0.220000000    -5.576000000    -0.286000000
C     1.893000000    -5.994000000    -0.044000000
O     1.886000000    -6.573000000     1.222000000
C     3.177000000    -5.775000000    -0.488000000
H     4.007000000    -6.015000000     0.173000000
C     3.469000000    -5.157000000    -1.654000000
O     4.772000000    -4.847000000    -2.015000000
C     5.142000000    -3.792000000    -2.846000000
C     5.472000000    -2.566000000    -2.319000000
H     5.355000000    -2.423000000    -1.248000000
C     5.268000000    -3.951000000    -4.206000000
H     4.980000000    -4.896000000    -4.660000000
C     5.609000000    -2.862000000    -5.001000000
H     5.577000000    -2.953000000    -6.084000000
C     5.896000000    -1.662000000    -4.459000000
H     6.170000000    -0.799000000    -5.059000000
C     5.870000000    -1.478000000    -3.106000000
O     6.277000000    -0.374000000    -2.410000000
C     5.453000000     0.728000000    -2.060000000
C     5.858000000     1.843000000    -1.323000000
H     6.813000000     1.767000000    -0.808000000
C     4.895000000     2.823000000    -0.936000000
O     5.427000000     3.893000000    -0.122000000
C     4.667000000     4.969000000     0.231000000
C     3.881000000     4.954000000     1.393000000
H     3.914000000     4.061000000     2.012000000
C     4.807000000     6.156000000    -0.517000000
H     5.507000000     6.285000000    -1.339000000
C     4.097000000     7.235000000    -0.124000000
H     4.147000000     8.119000000    -0.754000000
C     3.272000000     7.273000000     0.963000000
H     2.694000000     8.169000000     1.177000000
C     3.190000000     6.157000000     1.785000000
O     2.462000000     6.254000000     2.960000000
C     1.226000000     5.679000000     3.188000000
C     0.799000000     5.579000000     4.500000000
H     1.270000000     6.122000000     5.315000000
C    -0.297000000     4.716000000     4.665000000
O    -0.787000000     4.521000000     5.930000000
C    -1.618000000     3.412000000     6.235000000
C    -1.185000000     2.115000000     6.146000000
H    -0.137000000     1.887000000     5.970000000
C    -2.945000000     3.698000000     6.557000000
H    -3.249000000     4.739000000     6.496000000
C    -3.858000000     2.638000000     6.711000000
H    -4.904000000     2.927000000     6.771000000
C    -3.356000000     1.328000000     6.722000000
H    -4.016000000     0.481000000     6.894000000
C    -2.074000000     1.066000000     6.381000000
O    -1.503000000    -0.207000000     6.308000000
C    -1.644000000    -1.173000000     5.256000000
C    -1.032000000    -2.464000000     5.434000000
H    -0.535000000    -2.735000000     6.361000000
C    -1.145000000    -3.437000000     4.509000000
O    -0.629000000    -4.735000000     4.783000000
C    -0.415000000    -5.792000000     3.875000000
C    -1.381000000    -6.754000000     3.764000000
H    -2.200000000    -6.688000000     4.475000000
C    -1.123000000    -7.780000000     2.876000000
H    -1.839000000    -8.597000000     2.902000000
C    -0.026000000    -7.718000000     2.013000000
H     0.117000000    -8.561000000     1.342000000
C     0.820000000    -6.660000000     2.011000000
C     0.594000000    -5.627000000     2.898000000
H     1.330000000    -4.830000000     2.961000000
C     1.492000000    -1.089000000     2.574000000
H     1.429000000    -0.876000000     3.638000000
C     0.406000000    -0.713000000     1.785000000
H    -0.469000000    -0.264000000     2.247000000
C     0.372000000    -0.828000000     0.361000000
H    -0.529000000    -0.535000000    -0.214000000
C     1.436000000    -1.422000000    -0.257000000
H     1.485000000    -1.514000000    -1.339000000
C     2.492000000    -1.915000000     0.565000000
H     3.366000000    -2.360000000     0.096000000
C     2.506000000    -1.812000000     1.975000000
C     3.599000000    -2.395000000     2.824000000
O     4.443000000    -3.142000000     2.319000000
O     3.720000000    -2.020000000     3.950000000
O     6.465000000    -4.434000000     7.150000000
H     6.126000000    -5.092000000     7.757000000
H     5.695000000    -4.129000000     6.671000000
O     6.032000000     0.029000000     4.736000000
H     6.398000000     0.874000000     4.997000000
H     5.246000000    -0.069000000     5.273000000
O     6.053000000    -7.983000000     3.764000000
H     5.311000000    -8.066000000     3.165000000
H     6.335000000    -7.073000000     3.671000000
O     8.558000000    -4.776000000     3.611000000
H     8.047000000    -3.975000000     3.720000000
H     8.348000000    -5.077000000     2.727000000
O     9.178000000    -1.174000000     3.680000000
H     8.261000000    -1.290000000     3.930000000
H     9.165000000    -1.157000000     2.723000000
O     4.604000000    -1.170000000     8.261000000
H     5.455000000    -1.345000000     7.858000000
H     4.015000000    -1.021000000     7.521000000
O     2.372000000    -6.369000000     6.447000000
H     1.430000000    -6.207000000     6.497000000
H     2.480000000    -6.915000000     5.667000000
O     6.480000000     0.541000000     1.793000000
H     6.053000000     0.180000000     2.569000000
H     6.965000000    -0.196000000     1.421000000
O     2.950000000    -0.528000000     6.139000000
H     2.590000000     0.298000000     5.815000000
H     3.213000000    -1.001000000     5.349000000
O     4.252000000    -8.402000000     1.892000000
H     3.607000000    -8.949000000     1.444000000
H     3.878000000    -7.521000000     1.867000000
O     1.310000000    -2.156000000     7.932000000
H     1.658000000    -1.324000000     7.612000000
H     2.004000000    -2.790000000     7.757000000
O     2.505000000     1.422000000     4.108000000
H     2.951000000     2.215000000     4.408000000
H     2.547000000     1.471000000     3.153000000
O     6.439000000    -3.354000000     0.763000000
H     6.704000000    -4.041000000     1.374000000
H     5.554000000    -3.116000000     1.040000000
O     4.628000000    -5.573000000     3.102000000
H     5.270000000    -5.361000000     3.780000000
H     4.320000000    -4.721000000     2.791000000
O     4.178000000    -3.492000000     6.144000000
H     4.203000000    -2.922000000     5.375000000
H     3.352000000    -3.968000000     6.062000000
O     6.887000000    -1.670000000     7.187000000
H     7.480000000    -2.320000000     7.564000000
H     6.783000000    -1.942000000     6.275000000
O     8.258000000    -1.260000000     0.860000000
H     7.833000000    -2.079000000     0.603000000
H     8.972000000    -1.153000000     0.231000000
O     3.738000000     1.554000000     1.504000000
H     3.793000000     1.058000000     0.686000000
H     4.612000000     1.929000000     1.615000000
O     6.647000000    -2.503000000     3.758000000
H     5.880000000    -2.829000000     3.287000000
H     6.325000000    -1.745000000     4.245000000
