215
-1426.71977
C    -4.033000000    -1.099000000    -3.395000000
H    -4.133000000    -0.200000000    -3.997000000
C    -4.102000000    -1.161000000    -1.970000000
C    -4.053000000    -2.366000000    -1.244000000
H    -3.946000000    -2.334000000    -0.163000000
C    -4.065000000     0.129000000    -1.132000000
O    -4.506000000     1.180000000    -1.930000000
H    -3.021000000     0.349000000    -0.863000000
O    -4.891000000    -0.089000000     0.000000000
C    -4.350000000     0.469000000     1.140000000
C    -3.840000000    -0.426000000     2.038000000
H    -4.044000000    -1.485000000     1.907000000
C    -3.210000000     0.000000000     3.231000000
O    -2.630000000    -0.974000000     4.005000000
C    -3.021000000     1.341000000     3.423000000
C    -2.332000000     1.865000000     4.644000000
H    -2.824000000     2.814000000     4.865000000
C    -0.882000000     1.993000000     4.404000000
C    -0.295000000     3.199000000     3.823000000
H    -1.004000000     4.000000000     3.628000000
H    -2.492000000     1.315000000     5.573000000
C    -3.460000000     2.222000000     2.420000000
H    -3.428000000     3.298000000     2.575000000
C    -4.130000000     1.861000000     1.276000000
C    -4.707000000     2.903000000     0.320000000
H    -5.019000000     3.825000000     0.814000000
H    -5.554000000     2.361000000    -0.105000000
C    -3.805000000     3.289000000    -0.822000000
C    -2.854000000     4.342000000    -0.769000000
H    -2.758000000     4.996000000     0.094000000
C    -3.721000000     2.336000000    -1.896000000
C    -2.814000000     2.530000000    -2.921000000
H    -2.835000000     1.885000000    -3.796000000
C    -1.846000000     3.510000000    -2.736000000
O    -0.775000000     3.513000000    -3.572000000
C     0.374000000     2.758000000    -3.093000000
C     0.909000000     1.692000000    -4.052000000
C     2.142000000     1.099000000    -3.745000000
H     2.642000000     1.434000000    -2.840000000
C     0.272000000     1.214000000    -5.189000000
H    -0.727000000     1.579000000    -5.411000000
O     1.405000000     3.695000000    -2.680000000
H    -0.008000000     2.205000000    -2.222000000
C    -1.830000000     4.401000000    -1.646000000
C    -0.725000000     5.442000000    -1.548000000
H    -1.078000000     6.381000000    -1.116000000
H    -0.409000000     5.683000000    -2.565000000
C     0.460000000     4.881000000    -0.770000000
C     0.638000000     5.034000000     0.660000000
H    -0.174000000     5.541000000     1.174000000
C     1.503000000     4.149000000    -1.405000000
C     2.577000000     3.617000000    -0.639000000
H     3.341000000     3.002000000    -1.109000000
C     2.694000000     3.805000000     0.713000000
O     3.785000000     3.168000000     1.368000000
C     3.456000000     1.869000000     1.978000000
C     4.515000000     0.774000000     1.700000000
C     5.366000000     0.904000000     0.627000000
H     5.479000000     1.792000000     0.010000000
C     4.460000000    -0.452000000     2.409000000
H     3.857000000    -0.584000000     3.304000000
O     3.178000000     1.970000000     3.442000000
H     2.473000000     1.579000000     1.578000000
C     1.650000000     4.454000000     1.411000000
C     1.716000000     4.516000000     2.897000000
H     1.070000000     5.373000000     3.100000000
H     2.694000000     4.839000000     3.258000000
C     1.098000000     3.261000000     3.493000000
C     1.894000000     2.134000000     3.850000000
C     1.331000000     0.965000000     4.393000000
H     1.996000000     0.137000000     4.626000000
C    -0.102000000     0.827000000     4.517000000
O    -0.640000000    -0.308000000     4.978000000
C    -1.220000000    -1.109000000     3.984000000
H    -0.902000000    -0.842000000     2.966000000
C    -0.903000000    -2.586000000     4.117000000
C    -1.762000000    -3.604000000     3.530000000
H    -2.553000000    -3.239000000     2.881000000
C     0.277000000    -2.974000000     4.667000000
H     0.995000000    -2.268000000     5.076000000
C     0.626000000    -4.347000000     4.663000000
O     1.922000000    -4.738000000     5.050000000
C    -0.253000000    -5.274000000     4.262000000
H     0.041000000    -6.321000000     4.254000000
C    -1.467000000    -4.960000000     3.662000000
O    -2.289000000    -5.934000000     3.085000000
C    -3.216000000    -5.546000000     2.214000000
C    -2.979000000    -5.375000000     0.820000000
H    -1.966000000    -5.541000000     0.461000000
C    -4.524000000    -5.436000000     2.764000000
H    -4.696000000    -5.395000000     3.837000000
C    -5.483000000    -4.866000000     1.938000000
H    -6.417000000    -4.571000000     2.411000000
C    -5.356000000    -4.849000000     0.551000000
H    -6.222000000    -4.615000000    -0.063000000
C    -4.095000000    -5.021000000     0.009000000
O    -3.819000000    -4.841000000    -1.384000000
C    -3.956000000    -3.576000000    -1.964000000
C    -3.845000000    -3.515000000    -3.359000000
H    -3.832000000    -4.463000000    -3.891000000
C    -3.862000000    -2.292000000    -4.063000000
O    -3.979000000    -2.385000000    -5.419000000
C    -3.199000000    -1.473000000    -6.218000000
C    -1.810000000    -1.189000000    -6.161000000
H    -1.243000000    -1.788000000    -5.453000000
C    -3.890000000    -0.928000000    -7.245000000
H    -4.931000000    -1.149000000    -7.466000000
C    -3.364000000     0.023000000    -8.111000000
H    -3.958000000     0.467000000    -8.907000000
C    -1.960000000     0.132000000    -8.189000000
H    -1.435000000     0.625000000    -9.004000000
C    -1.247000000    -0.431000000    -7.162000000
O     0.124000000    -0.245000000    -7.135000000
C     0.771000000     0.146000000    -5.965000000
C     1.979000000    -0.423000000    -5.582000000
H     2.405000000    -1.184000000    -6.231000000
C     2.734000000     0.129000000    -4.567000000
O     4.025000000    -0.340000000    -4.362000000
C     4.966000000     0.366000000    -3.742000000
C     5.406000000    -0.064000000    -2.466000000
H     4.910000000    -0.864000000    -1.924000000
C     5.678000000     1.345000000    -4.472000000
H     5.421000000     1.637000000    -5.487000000
C     6.835000000     1.867000000    -3.916000000
H     7.486000000     2.557000000    -4.447000000
C     7.286000000     1.403000000    -2.738000000
H     8.215000000     1.859000000    -2.405000000
C     6.634000000     0.446000000    -1.956000000
O     7.183000000     0.153000000    -0.710000000
C     6.264000000    -0.089000000     0.266000000
C     6.292000000    -1.260000000     1.017000000
H     7.063000000    -2.014000000     0.881000000
C     5.343000000    -1.476000000     2.033000000
O     5.549000000    -2.649000000     2.795000000
C     4.842000000    -2.911000000     3.984000000
C     5.256000000    -2.410000000     5.172000000
H     6.180000000    -1.837000000     5.165000000
C     4.561000000    -2.706000000     6.364000000
H     4.727000000    -2.171000000     7.296000000
C     3.503000000    -3.543000000     6.357000000
H     2.952000000    -3.764000000     7.268000000
C     3.005000000    -4.010000000     5.127000000
C     3.707000000    -3.755000000     3.950000000
H     3.530000000    -4.273000000     3.011000000
C     2.103000000    -1.941000000    -0.149000000
H     2.780000000    -2.588000000     0.402000000
C     1.501000000    -0.855000000     0.427000000
H     1.827000000    -0.567000000     1.423000000
C     0.492000000    -0.191000000    -0.233000000
H     0.019000000     0.666000000     0.243000000
C     0.036000000    -0.690000000    -1.440000000
H    -0.833000000    -0.160000000    -1.821000000
C     0.730000000    -1.728000000    -2.046000000
H     0.426000000    -2.112000000    -3.017000000
C     1.773000000    -2.368000000    -1.404000000
C     2.419000000    -3.578000000    -2.021000000
O     2.162000000    -3.993000000    -3.191000000
O     3.192000000    -4.260000000    -1.340000000
O     0.519000000    -4.948000000    -5.083000000
H    -0.142000000    -5.367000000    -4.533000000
H     1.044000000    -4.429000000    -4.473000000
O     2.720000000    -8.548000000    -3.702000000
H     2.868000000    -7.689000000    -4.098000000
H     1.980000000    -8.415000000    -3.110000000
O     2.722000000    -8.115000000    -7.038000000
H     3.473000000    -8.704000000    -6.964000000
H     2.857000000    -7.466000000    -6.347000000
O     1.673000000    -9.192000000    -0.069000000
H     1.804000000    -8.244000000    -0.051000000
H     1.149000000    -9.377000000     0.711000000
O     5.575000000    -3.606000000    -2.753000000
H     5.430000000    -3.861000000    -3.664000000
H     4.738000000    -3.779000000    -2.320000000
O     3.534000000    -3.113000000    -5.132000000
H     2.978000000    -3.520000000    -4.468000000
H     3.529000000    -2.182000000    -4.911000000
O     4.245000000    -6.663000000     1.954000000
H     3.678000000    -6.481000000     1.205000000
H     3.974000000    -7.530000000     2.255000000
O    -1.108000000    -5.647000000    -2.657000000
H    -1.728000000    -4.996000000    -2.329000000
H    -1.658000000    -6.340000000    -3.023000000
O     7.534000000    -6.337000000    -1.821000000
H     6.780000000    -5.808000000    -2.082000000
H     7.278000000    -6.722000000    -0.982000000
O     6.602000000    -7.749000000     0.784000000
H     6.120000000    -6.944000000     0.974000000
H     6.148000000    -8.424000000     1.288000000
O     3.077000000    -6.096000000    -5.169000000
H     3.734000000    -5.590000000    -4.690000000
H     2.274000000    -5.581000000    -5.091000000
O     6.549000000    -8.484000000    -4.663000000
H     5.904000000    -8.189000000    -4.019000000
H     6.026000000    -8.852000000    -5.374000000
O     0.607000000    -7.883000000    -2.371000000
H     0.263000000    -7.023000000    -2.130000000
H    -0.017000000    -8.505000000    -1.996000000
O     1.389000000    -5.106000000    -7.740000000
H     0.979000000    -5.969000000    -7.787000000
H     1.077000000    -4.737000000    -6.914000000
O     6.689000000    -5.304000000     2.793000000
H     7.091000000    -6.168000000     2.879000000
H     5.832000000    -5.477000000     2.403000000
O     2.470000000    -6.408000000    -0.355000000
H     1.867000000    -6.635000000    -1.063000000
H     2.988000000    -5.683000000    -0.704000000
O     7.727000000    -3.651000000    -4.810000000
H     8.558000000    -4.119000000    -4.725000000
H     7.469000000    -3.784000000    -5.722000000
O     8.222000000    -2.587000000    -2.260000000
H     8.047000000    -3.072000000    -3.067000000
H     7.369000000    -2.516000000    -1.833000000
O     4.200000000    -4.252000000    -7.732000000
H     3.256000000    -4.349000000    -7.861000000
H     4.279000000    -3.738000000    -6.927000000
