215
-1447.53734
C     4.075000000     3.125000000    -2.086000000
H     3.731000000     4.156000000    -2.115000000
C     3.305000000     2.063000000    -2.608000000
C     3.829000000     0.768000000    -2.629000000
H     3.271000000    -0.095000000    -2.986000000
C     1.816000000     2.318000000    -2.993000000
O     1.477000000     3.697000000    -3.112000000
H     1.259000000     1.779000000    -2.212000000
O     1.559000000     1.586000000    -4.249000000
C     0.291000000     0.954000000    -4.367000000
C     0.392000000    -0.453000000    -4.434000000
H     1.372000000    -0.914000000    -4.335000000
C    -0.691000000    -1.268000000    -4.479000000
O    -0.467000000    -2.612000000    -4.334000000
C    -1.975000000    -0.672000000    -4.573000000
C    -3.237000000    -1.526000000    -4.547000000
H    -4.129000000    -1.065000000    -4.975000000
C    -3.658000000    -1.732000000    -3.127000000
C    -4.446000000    -0.822000000    -2.436000000
H    -4.850000000     0.053000000    -2.940000000
H    -3.059000000    -2.484000000    -5.041000000
C    -2.059000000     0.709000000    -4.610000000
H    -2.977000000     1.286000000    -4.689000000
C    -0.930000000     1.503000000    -4.379000000
C    -1.087000000     3.001000000    -4.468000000
H    -2.059000000     3.342000000    -4.831000000
H    -0.357000000     3.446000000    -5.148000000
C    -0.908000000     3.631000000    -3.046000000
C    -2.126000000     3.778000000    -2.267000000
H    -3.057000000     3.453000000    -2.725000000
C     0.274000000     3.997000000    -2.587000000
C     0.285000000     4.577000000    -1.302000000
H     1.229000000     4.825000000    -0.822000000
C    -0.828000000     4.601000000    -0.535000000
O    -0.703000000     4.868000000     0.827000000
C    -0.902000000     3.782000000     1.777000000
C     0.076000000     3.742000000     2.928000000
C    -0.207000000     3.348000000     4.232000000
H    -1.215000000     3.010000000     4.461000000
C     1.363000000     4.227000000     2.642000000
H     1.599000000     4.770000000     1.730000000
O    -2.213000000     3.796000000     2.266000000
H    -0.875000000     2.841000000     1.208000000
C    -2.157000000     4.371000000    -1.028000000
C    -3.398000000     4.511000000    -0.232000000
H    -4.215000000     4.844000000    -0.875000000
H    -3.268000000     5.376000000     0.421000000
C    -3.770000000     3.272000000     0.493000000
C    -4.589000000     2.294000000    -0.121000000
H    -5.107000000     2.561000000    -1.038000000
C    -3.127000000     2.949000000     1.704000000
C    -3.516000000     1.815000000     2.347000000
H    -3.157000000     1.585000000     3.347000000
C    -4.280000000     0.808000000     1.744000000
O    -4.320000000    -0.356000000     2.389000000
C    -3.388000000    -1.368000000     1.783000000
C    -2.573000000    -2.154000000     2.845000000
C    -2.533000000    -1.632000000     4.178000000
H    -3.027000000    -0.681000000     4.358000000
C    -1.759000000    -3.234000000     2.557000000
H    -1.632000000    -3.523000000     1.517000000
O    -4.162000000    -2.250000000     0.996000000
H    -2.634000000    -0.886000000     1.142000000
C    -4.791000000     0.998000000     0.461000000
C    -5.592000000    -0.080000000    -0.256000000
H    -6.358000000     0.418000000    -0.854000000
H    -6.258000000    -0.616000000     0.423000000
C    -4.644000000    -0.994000000    -1.051000000
C    -4.096000000    -2.126000000    -0.398000000
C    -3.179000000    -2.926000000    -1.100000000
H    -2.652000000    -3.718000000    -0.574000000
C    -3.044000000    -2.811000000    -2.442000000
O    -2.055000000    -3.673000000    -2.987000000
C    -0.720000000    -3.194000000    -2.994000000
H    -0.692000000    -2.346000000    -2.294000000
C     0.304000000    -4.307000000    -2.698000000
C     1.707000000    -4.219000000    -2.980000000
H     1.987000000    -3.368000000    -3.596000000
C    -0.134000000    -5.429000000    -1.988000000
H    -1.195000000    -5.598000000    -1.821000000
C     0.815000000    -6.327000000    -1.550000000
O     0.440000000    -7.440000000    -0.849000000
C     2.166000000    -6.161000000    -1.804000000
H     2.757000000    -6.974000000    -1.390000000
C     2.614000000    -5.171000000    -2.568000000
O     4.009000000    -5.014000000    -2.879000000
C     4.579000000    -3.827000000    -3.292000000
C     4.765000000    -2.796000000    -2.400000000
H     4.433000000    -2.950000000    -1.376000000
C     5.166000000    -3.791000000    -4.543000000
H     5.066000000    -4.640000000    -5.214000000
C     5.877000000    -2.711000000    -4.953000000
H     6.348000000    -2.741000000    -5.932000000
C     6.081000000    -1.622000000    -4.083000000
H     6.650000000    -0.763000000    -4.431000000
C     5.462000000    -1.670000000    -2.809000000
O     5.707000000    -0.669000000    -1.971000000
C     5.149000000     0.541000000    -2.116000000
C     5.898000000     1.599000000    -1.613000000
H     6.902000000     1.463000000    -1.221000000
C     5.351000000     2.873000000    -1.478000000
O     6.058000000     3.938000000    -0.977000000
C     5.379000000     4.714000000    -0.081000000
C     4.874000000     4.164000000     1.117000000
H     5.154000000     3.142000000     1.362000000
C     4.912000000     6.003000000    -0.415000000
H     5.295000000     6.438000000    -1.334000000
C     4.180000000     6.721000000     0.542000000
H     3.823000000     7.712000000     0.273000000
C     3.884000000     6.111000000     1.746000000
H     3.353000000     6.677000000     2.507000000
C     4.143000000     4.840000000     2.014000000
O     3.718000000     4.243000000     3.180000000
C     2.433000000     3.996000000     3.481000000
C     2.136000000     3.436000000     4.702000000
H     2.863000000     3.088000000     5.432000000
C     0.850000000     3.103000000     5.086000000
O     0.629000000     2.473000000     6.288000000
C    -0.537000000     1.771000000     6.622000000
C    -0.667000000     0.423000000     6.252000000
H     0.190000000    -0.014000000     5.746000000
C    -1.562000000     2.355000000     7.370000000
H    -1.539000000     3.384000000     7.717000000
C    -2.712000000     1.658000000     7.602000000
H    -3.509000000     2.235000000     8.064000000
C    -2.851000000     0.316000000     7.218000000
H    -3.739000000    -0.298000000     7.343000000
C    -1.751000000    -0.315000000     6.596000000
O    -1.734000000    -1.689000000     6.441000000
C    -1.729000000    -2.220000000     5.176000000
C    -0.927000000    -3.311000000     4.825000000
H    -0.247000000    -3.767000000     5.541000000
C    -0.908000000    -3.798000000     3.526000000
O    -0.099000000    -4.848000000     3.235000000
C    -0.427000000    -5.936000000     2.409000000
C    -1.421000000    -6.830000000     2.846000000
H    -1.958000000    -6.608000000     3.765000000
C    -1.781000000    -7.870000000     2.016000000
H    -2.597000000    -8.489000000     2.380000000
C    -1.010000000    -8.180000000     0.914000000
H    -1.226000000    -9.013000000     0.250000000
C    -0.221000000    -7.220000000     0.324000000
C     0.069000000    -6.082000000     1.137000000
H     0.810000000    -5.362000000     0.800000000
C     0.620000000    -0.714000000     2.251000000
H     0.429000000    -0.611000000     3.316000000
C    -0.277000000    -0.015000000     1.406000000
H    -1.089000000     0.634000000     1.726000000
C    -0.141000000    -0.140000000     0.021000000
H    -0.685000000     0.419000000    -0.785000000
C     0.924000000    -0.885000000    -0.488000000
H     1.237000000    -0.938000000    -1.528000000
C     1.709000000    -1.665000000     0.355000000
H     2.350000000    -2.443000000    -0.052000000
C     1.599000000    -1.573000000     1.769000000
C     2.496000000    -2.395000000     2.697000000
O     3.262000000    -3.225000000     2.232000000
O     2.539000000    -2.232000000     3.872000000
O     5.338000000    -2.814000000     6.954000000
H     5.884000000    -2.045000000     7.117000000
H     5.111000000    -2.754000000     6.026000000
O     5.811000000    -6.352000000     2.677000000
H     5.712000000    -7.241000000     2.338000000
H     4.955000000    -5.946000000     2.538000000
O     5.739000000    -3.227000000     0.963000000
H     4.855000000    -3.345000000     1.310000000
H     5.876000000    -2.279000000     0.974000000
O     5.357000000    -0.282000000     1.174000000
H     5.149000000    -0.510000000     0.267000000
H     4.512000000    -0.056000000     1.563000000
O     7.140000000    -5.152000000     4.818000000
H     6.547000000    -5.666000000     4.270000000
H     7.915000000    -5.704000000     4.917000000
O     0.817000000    -6.281000000     6.141000000
H     1.702000000    -6.104000000     5.822000000
H     0.852000000    -6.071000000     7.074000000
O     5.052000000    -3.380000000     4.235000000
H     5.876000000    -3.764000000     3.937000000
H     4.494000000    -3.378000000     3.458000000
O     5.511000000    -5.853000000     7.300000000
H     5.559000000    -5.094000000     7.881000000
H     5.628000000    -5.489000000     6.422000000
O     2.565000000    -1.781000000     9.010000000
H     3.000000000    -1.014000000     8.639000000
H     2.164000000    -2.217000000     8.258000000
O     2.918000000    -7.852000000     2.776000000
H     3.251000000    -8.152000000     3.622000000
H     2.556000000    -8.639000000     2.368000000
O     3.904000000     0.008000000     4.960000000
H     3.491000000    -0.732000000     4.516000000
H     4.836000000    -0.083000000     4.761000000
O     7.368000000    -5.178000000     0.599000000
H     6.947000000    -5.678000000     1.298000000
H     6.895000000    -4.346000000     0.581000000
O     3.279000000    -5.870000000     1.156000000
H     3.034000000    -5.053000000     1.591000000
H     3.078000000    -6.552000000     1.797000000
O     1.731000000    -2.169000000     6.368000000
H     0.903000000    -2.647000000     6.321000000
H     2.070000000    -2.188000000     5.473000000
O     6.875000000     0.942000000     4.481000000
H     6.939000000     1.312000000     3.601000000
H     7.583000000     1.362000000     4.970000000
O     2.725000000     1.486000000     0.325000000
H     2.094000000     2.165000000     0.086000000
H     2.187000000     0.730000000     0.560000000
O     2.856000000    -4.946000000     5.057000000
H     2.423000000    -4.148000000     4.754000000
H     3.789000000    -4.733000000     5.040000000
O     2.889000000     0.951000000     7.201000000
H     3.162000000     0.420000000     6.453000000
H     2.074000000     1.364000000     6.916000000
O     8.148000000    -0.599000000     2.318000000
H     7.357000000    -0.543000000     1.781000000
H     7.870000000    -1.065000000     3.107000000
