215
-1447.77381
C     4.572000000     1.625000000    -1.568000000
H     4.312000000     2.669000000    -1.414000000
C     3.774000000     0.802000000    -2.416000000
C     4.184000000    -0.502000000    -2.701000000
H     3.494000000    -1.075000000    -3.316000000
C     2.455000000     1.400000000    -2.982000000
O     2.414000000     2.827000000    -3.008000000
H     1.566000000     1.052000000    -2.436000000
O     2.216000000     0.878000000    -4.311000000
C     0.916000000     0.395000000    -4.555000000
C     0.742000000    -0.959000000    -4.442000000
H     1.602000000    -1.577000000    -4.197000000
C    -0.582000000    -1.454000000    -4.492000000
O    -0.743000000    -2.770000000    -4.236000000
C    -1.683000000    -0.705000000    -4.602000000
C    -3.083000000    -1.195000000    -4.542000000
H    -3.766000000    -0.473000000    -4.996000000
C    -3.435000000    -1.278000000    -3.050000000
C    -4.167000000    -0.201000000    -2.517000000
H    -4.591000000     0.529000000    -3.201000000
H    -3.117000000    -2.193000000    -4.984000000
C    -1.506000000     0.688000000    -4.787000000
H    -2.301000000     1.407000000    -4.971000000
C    -0.203000000     1.203000000    -4.730000000
C     0.035000000     2.706000000    -4.811000000
H    -0.694000000     3.236000000    -5.429000000
H     1.028000000     2.744000000    -5.264000000
C    -0.014000000     3.352000000    -3.482000000
C    -1.195000000     3.842000000    -2.940000000
H    -2.079000000     3.820000000    -3.572000000
C     1.133000000     3.423000000    -2.690000000
C     1.162000000     3.977000000    -1.430000000
H     2.072000000     3.885000000    -0.842000000
C    -0.058000000     4.488000000    -0.965000000
O     0.014000000     4.959000000     0.332000000
C    -0.595000000     4.157000000     1.362000000
C     0.290000000     4.032000000     2.574000000
C    -0.297000000     3.739000000     3.811000000
H    -1.357000000     3.640000000     4.030000000
C     1.663000000     4.015000000     2.411000000
H     2.074000000     4.094000000     1.408000000
O    -1.857000000     4.654000000     1.684000000
H    -0.734000000     3.117000000     1.033000000
C    -1.219000000     4.450000000    -1.690000000
C    -2.525000000     4.989000000    -1.091000000
H    -3.220000000     5.288000000    -1.879000000
H    -2.304000000     5.935000000    -0.593000000
C    -3.257000000     3.999000000    -0.200000000
C    -4.136000000     3.090000000    -0.781000000
H    -4.400000000     3.098000000    -1.835000000
C    -2.903000000     3.965000000     1.179000000
C    -3.346000000     2.853000000     1.973000000
H    -3.056000000     2.831000000     3.020000000
C    -4.206000000     1.915000000     1.393000000
O    -4.530000000     0.739000000     2.117000000
C    -3.777000000    -0.427000000     1.822000000
C    -3.308000000    -1.219000000     3.053000000
C    -3.332000000    -0.569000000     4.335000000
H    -3.643000000     0.470000000     4.407000000
C    -2.512000000    -2.338000000     2.933000000
H    -2.350000000    -2.775000000     1.951000000
O    -4.550000000    -1.248000000     0.989000000
H    -2.862000000    -0.272000000     1.231000000
C    -4.570000000     2.049000000     0.036000000
C    -5.361000000     0.997000000    -0.719000000
H    -5.916000000     1.492000000    -1.518000000
H    -6.112000000     0.626000000    -0.018000000
C    -4.544000000    -0.195000000    -1.214000000
C    -4.198000000    -1.244000000    -0.319000000
C    -3.613000000    -2.367000000    -0.868000000
H    -3.526000000    -3.195000000    -0.169000000
C    -3.149000000    -2.352000000    -2.216000000
O    -2.397000000    -3.396000000    -2.665000000
C    -0.988000000    -3.146000000    -2.824000000
H    -0.698000000    -2.334000000    -2.141000000
C    -0.100000000    -4.376000000    -2.398000000
C     1.058000000    -4.797000000    -3.143000000
H     1.264000000    -4.249000000    -4.059000000
C    -0.500000000    -5.107000000    -1.283000000
H    -1.430000000    -4.960000000    -0.739000000
C     0.278000000    -6.109000000    -0.859000000
O     0.073000000    -6.765000000     0.371000000
C     1.473000000    -6.374000000    -1.469000000
H     2.085000000    -7.086000000    -0.922000000
C     1.906000000    -5.748000000    -2.648000000
O     3.121000000    -6.017000000    -3.157000000
C     4.050000000    -5.137000000    -3.686000000
C     4.348000000    -3.969000000    -2.944000000
H     3.765000000    -3.760000000    -2.050000000
C     4.932000000    -5.521000000    -4.740000000
H     4.738000000    -6.382000000    -5.374000000
C     5.998000000    -4.687000000    -5.103000000
H     6.666000000    -4.936000000    -5.923000000
C     6.312000000    -3.622000000    -4.221000000
H     7.106000000    -2.922000000    -4.471000000
C     5.462000000    -3.233000000    -3.255000000
O     5.957000000    -2.163000000    -2.486000000
C     5.369000000    -0.987000000    -2.166000000
C     6.091000000    -0.186000000    -1.330000000
H     7.049000000    -0.520000000    -0.940000000
C     5.737000000     1.129000000    -1.037000000
O     6.473000000     1.769000000    -0.095000000
C     5.954000000     2.817000000     0.608000000
C     5.208000000     2.673000000     1.780000000
H     5.231000000     1.718000000     2.298000000
C     6.148000000     4.110000000     0.100000000
H     6.783000000     4.225000000    -0.774000000
C     5.505000000     5.246000000     0.630000000
H     5.672000000     6.235000000     0.213000000
C     4.667000000     5.096000000     1.724000000
H     4.124000000     5.930000000     2.161000000
C     4.603000000     3.854000000     2.311000000
O     3.900000000     3.729000000     3.451000000
C     2.505000000     3.840000000     3.567000000
C     1.936000000     3.631000000     4.808000000
H     2.612000000     3.345000000     5.610000000
C     0.585000000     3.536000000     4.934000000
O     0.178000000     3.208000000     6.135000000
C    -1.070000000     2.778000000     6.535000000
C    -1.335000000     1.394000000     6.375000000
H    -0.637000000     0.751000000     5.845000000
C    -2.110000000     3.535000000     7.031000000
H    -1.883000000     4.590000000     7.158000000
C    -3.245000000     2.958000000     7.632000000
H    -3.993000000     3.635000000     8.037000000
C    -3.549000000     1.647000000     7.399000000
H    -4.466000000     1.179000000     7.747000000
C    -2.611000000     0.863000000     6.780000000
O    -2.885000000    -0.520000000     6.636000000
C    -2.837000000    -1.189000000     5.476000000
C    -2.025000000    -2.308000000     5.333000000
H    -1.715000000    -2.796000000     6.253000000
C    -1.957000000    -2.922000000     4.055000000
O    -1.136000000    -4.092000000     3.980000000
C    -1.534000000    -5.080000000     3.140000000
C    -2.800000000    -5.571000000     3.117000000
H    -3.447000000    -5.267000000     3.935000000
C    -3.117000000    -6.446000000     2.140000000
H    -4.140000000    -6.815000000     2.131000000
C    -2.157000000    -6.972000000     1.250000000
H    -2.366000000    -7.593000000     0.383000000
C    -0.866000000    -6.420000000     1.269000000
C    -0.572000000    -5.471000000     2.237000000
H     0.421000000    -5.027000000     2.235000000
C     0.652000000    -0.603000000     2.664000000
H     0.544000000    -0.284000000     3.697000000
C    -0.105000000     0.063000000     1.706000000
H    -0.768000000     0.885000000     1.967000000
C    -0.135000000    -0.410000000     0.374000000
H    -0.651000000     0.098000000    -0.420000000
C     0.674000000    -1.485000000     0.024000000
H     0.778000000    -1.726000000    -1.030000000
C     1.263000000    -2.234000000     1.007000000
H     1.861000000    -3.099000000     0.730000000
C     1.253000000    -1.823000000     2.343000000
C     1.886000000    -2.661000000     3.481000000
O     2.124000000    -3.855000000     3.319000000
O     2.133000000    -2.130000000     4.497000000
O     0.257000000    -8.336000000     4.314000000
H     0.681000000    -8.499000000     5.156000000
H     0.213000000    -7.382000000     4.249000000
O    -1.949000000    -6.182000000     6.814000000
H    -1.012000000    -6.345000000     6.707000000
H    -2.325000000    -7.046000000     6.981000000
O     5.888000000    -3.311000000     1.295000000
H     6.801000000    -3.274000000     1.577000000
H     5.522000000    -2.466000000     1.555000000
O     7.070000000    -5.440000000     4.000000000
H     7.672000000    -6.182000000     3.941000000
H     7.212000000    -4.952000000     3.189000000
O     0.628000000    -7.241000000     6.982000000
H     0.925000000    -6.717000000     6.238000000
H     1.300000000    -7.110000000     7.651000000
O     7.706000000    -0.084000000     2.012000000
H     8.005000000    -0.985000000     2.137000000
H     6.751000000    -0.146000000     2.013000000
O     4.166000000    -7.899000000     6.169000000
H     4.168000000    -7.201000000     6.825000000
H     4.008000000    -7.448000000     5.340000000
O     3.167000000    -3.775000000     8.475000000
H     3.012000000    -3.398000000     9.342000000
H     2.598000000    -3.274000000     7.891000000
O     0.413000000    -0.531000000     8.353000000
H    -0.384000000    -0.600000000     7.827000000
H     0.790000000    -1.411000000     8.334000000
O     5.127000000    -7.357000000     0.247000000
H     4.523000000    -7.889000000     0.765000000
H     4.867000000    -6.454000000     0.428000000
O     3.835000000    -0.201000000     5.179000000
H     3.410000000    -1.052000000     5.080000000
H     3.143000000     0.376000000     5.502000000
O     4.009000000    -5.129000000     1.600000000
H     3.256000000    -4.772000000     2.071000000
H     4.573000000    -4.372000000     1.443000000
O     4.570000000    -6.355000000     4.085000000
H     5.404000000    -5.897000000     4.185000000
H     4.235000000    -6.060000000     3.238000000
O     1.345000000    -2.737000000     6.836000000
H     0.958000000    -3.592000000     6.649000000
H     1.692000000    -2.442000000     5.995000000
O     6.072000000    -3.487000000     7.518000000
H     5.217000000    -3.699000000     7.145000000
H     6.511000000    -2.976000000     6.837000000
O     6.537000000     0.869000000     4.936000000
H     6.129000000     1.683000000     4.639000000
H     5.911000000     0.503000000     5.561000000
O     1.794000000    -5.786000000     5.029000000
H     1.660000000    -5.073000000     4.405000000
H     2.717000000    -6.020000000     4.930000000
O     4.610000000    -0.975000000     2.200000000
H     4.214000000    -0.355000000     1.588000000
H     4.076000000    -0.906000000     2.991000000
O     4.703000000    -3.349000000     4.983000000
H     3.799000000    -3.173000000     4.721000000
H     5.115000000    -3.705000000     4.197000000
