215
-1457.70929
C     3.269000000     2.817000000    -1.757000000
H     2.525000000     3.604000000    -1.657000000
C     3.122000000     1.789000000    -2.761000000
C     4.139000000     0.900000000    -2.935000000
H     3.981000000     0.039000000    -3.578000000
C     1.760000000     1.617000000    -3.411000000
O     1.213000000     2.813000000    -3.918000000
H     1.070000000     1.179000000    -2.675000000
O     1.790000000     0.692000000    -4.522000000
C     0.869000000    -0.330000000    -4.577000000
C     1.264000000    -1.602000000    -4.116000000
H     2.309000000    -1.839000000    -3.935000000
C     0.308000000    -2.575000000    -3.831000000
O     0.709000000    -3.782000000    -3.372000000
C    -1.017000000    -2.291000000    -4.136000000
C    -2.153000000    -3.326000000    -3.852000000
H    -3.007000000    -3.249000000    -4.528000000
C    -2.620000000    -3.252000000    -2.426000000
C    -3.754000000    -2.566000000    -2.049000000
H    -4.278000000    -1.990000000    -2.807000000
H    -1.877000000    -4.364000000    -4.054000000
C    -1.398000000    -1.018000000    -4.592000000
H    -2.443000000    -0.740000000    -4.701000000
C    -0.459000000    -0.015000000    -4.867000000
C    -0.899000000     1.365000000    -5.292000000
H    -1.853000000     1.283000000    -5.817000000
H    -0.236000000     2.003000000    -5.881000000
C    -1.156000000     2.302000000    -4.090000000
C    -2.415000000     2.458000000    -3.616000000
H    -3.230000000     1.830000000    -3.967000000
C    -0.089000000     3.023000000    -3.499000000
C    -0.387000000     3.855000000    -2.435000000
H     0.383000000     4.464000000    -1.967000000
C    -1.725000000     3.950000000    -1.923000000
O    -1.926000000     4.694000000    -0.773000000
C    -1.992000000     3.850000000     0.416000000
C    -1.173000000     4.507000000     1.466000000
C    -1.521000000     4.341000000     2.784000000
H    -2.378000000     3.715000000     3.021000000
C    -0.075000000     5.353000000     1.232000000
H     0.407000000     5.401000000     0.259000000
O    -3.387000000     3.638000000     0.814000000
H    -1.567000000     2.897000000     0.066000000
C    -2.769000000     3.263000000    -2.523000000
C    -4.152000000     3.151000000    -1.988000000
H    -4.929000000     2.888000000    -2.709000000
H    -4.495000000     4.126000000    -1.634000000
C    -4.266000000     2.162000000    -0.817000000
C    -4.892000000     0.877000000    -0.986000000
H    -5.360000000     0.572000000    -1.918000000
C    -3.872000000     2.463000000     0.470000000
C    -3.890000000     1.460000000     1.447000000
H    -3.504000000     1.808000000     2.402000000
C    -4.343000000     0.193000000     1.235000000
O    -4.088000000    -0.708000000     2.217000000
C    -2.952000000    -1.595000000     2.036000000
C    -2.239000000    -1.779000000     3.397000000
C    -2.105000000    -0.676000000     4.274000000
H    -2.312000000     0.333000000     3.926000000
C    -1.661000000    -2.971000000     3.750000000
H    -1.777000000    -3.805000000     3.063000000
O    -3.509000000    -2.851000000     1.624000000
H    -2.192000000    -1.254000000     1.317000000
C    -4.908000000    -0.126000000    -0.007000000
C    -5.349000000    -1.570000000    -0.367000000
H    -6.039000000    -1.637000000    -1.211000000
H    -5.884000000    -2.041000000     0.459000000
C    -4.158000000    -2.451000000    -0.718000000
C    -3.389000000    -3.124000000     0.297000000
C    -2.378000000    -3.972000000    -0.067000000
H    -1.874000000    -4.364000000     0.812000000
C    -1.978000000    -4.012000000    -1.404000000
O    -0.879000000    -4.734000000    -1.775000000
C     0.412000000    -4.015000000    -1.977000000
H     0.275000000    -3.020000000    -1.530000000
C     1.520000000    -4.630000000    -1.189000000
C     2.739000000    -4.022000000    -1.353000000
H     2.947000000    -3.328000000    -2.163000000
C     1.339000000    -5.677000000    -0.198000000
H     0.357000000    -6.043000000     0.090000000
C     2.449000000    -6.053000000     0.613000000
O     2.385000000    -6.907000000     1.700000000
C     3.693000000    -5.528000000     0.344000000
H     4.573000000    -5.949000000     0.824000000
C     3.856000000    -4.529000000    -0.627000000
O     5.153000000    -4.133000000    -0.818000000
C     5.558000000    -3.363000000    -1.934000000
C     5.776000000    -2.030000000    -1.695000000
H     5.660000000    -1.680000000    -0.673000000
C     5.627000000    -3.853000000    -3.272000000
H     5.301000000    -4.854000000    -3.541000000
C     5.960000000    -2.971000000    -4.272000000
H     6.120000000    -3.407000000    -5.255000000
C     6.273000000    -1.657000000    -4.024000000
H     6.614000000    -1.064000000    -4.869000000
C     6.155000000    -1.205000000    -2.732000000
O     6.347000000     0.127000000    -2.466000000
C     5.378000000     1.094000000    -2.319000000
C     5.553000000     2.194000000    -1.427000000
H     6.558000000     2.341000000    -1.039000000
C     4.506000000     3.030000000    -1.191000000
O     4.624000000     3.956000000    -0.210000000
C     3.980000000     5.188000000    -0.187000000
C     2.989000000     5.380000000     0.751000000
H     2.699000000     4.639000000     1.492000000
C     4.292000000     6.166000000    -1.143000000
H     4.986000000     5.896000000    -1.935000000
C     3.798000000     7.456000000    -0.957000000
H     4.021000000     8.274000000    -1.638000000
C     2.910000000     7.744000000     0.113000000
H     2.566000000     8.770000000     0.212000000
C     2.467000000     6.661000000     0.917000000
O     1.625000000     6.885000000     2.020000000
C     0.461000000     6.158000000     2.239000000
C     0.046000000     5.968000000     3.569000000
H     0.585000000     6.404000000     4.407000000
C    -0.953000000     5.118000000     3.848000000
O    -1.458000000     4.925000000     5.101000000
C    -2.121000000     3.794000000     5.493000000
C    -1.383000000     2.692000000     5.642000000
H    -0.325000000     2.689000000     5.390000000
C    -3.478000000     3.746000000     5.895000000
H    -4.070000000     4.658000000     5.877000000
C    -4.042000000     2.531000000     6.302000000
H    -5.082000000     2.542000000     6.619000000
C    -3.187000000     1.368000000     6.453000000
H    -3.645000000     0.469000000     6.859000000
C    -1.858000000     1.492000000     6.188000000
O    -1.084000000     0.335000000     6.198000000
C    -1.383000000    -0.774000000     5.433000000
C    -0.672000000    -1.951000000     5.598000000
H    -0.008000000    -2.050000000     6.453000000
C    -0.754000000    -3.068000000     4.817000000
O     0.145000000    -4.135000000     4.954000000
C     0.213000000    -5.316000000     4.200000000
C    -0.900000000    -6.170000000     4.118000000
H    -1.757000000    -5.935000000     4.744000000
C    -0.890000000    -7.343000000     3.394000000
H    -1.778000000    -7.949000000     3.237000000
C     0.184000000    -7.588000000     2.549000000
H     0.209000000    -8.399000000     1.826000000
C     1.334000000    -6.692000000     2.601000000
C     1.390000000    -5.600000000     3.541000000
H     2.229000000    -4.913000000     3.614000000
C     0.881000000     0.296000000     2.315000000
H     0.612000000     0.600000000     3.323000000
C    -0.081000000     0.561000000     1.371000000
H    -0.931000000     1.150000000     1.705000000
C     0.049000000     0.101000000     0.037000000
H    -0.750000000     0.362000000    -0.691000000
C     1.158000000    -0.581000000    -0.289000000
H     1.249000000    -1.006000000    -1.285000000
C     2.217000000    -0.724000000     0.691000000
H     3.131000000    -1.240000000     0.410000000
C     2.098000000    -0.310000000     1.999000000
C     3.134000000    -0.434000000     3.006000000
O     4.084000000    -1.164000000     2.778000000
O     3.133000000     0.301000000     3.988000000
O     8.642000000     0.130000000     0.075000000
H     8.254000000    -0.744000000     0.115000000
H     8.238000000     0.605000000     0.801000000
O     8.660000000    -1.162000000     3.941000000
H     7.889000000    -1.688000000     4.154000000
H     8.332000000    -0.485000000     3.349000000
O     3.427000000     2.849000000     7.361000000
H     2.997000000     2.906000000     6.508000000
H     4.289000000     2.479000000     7.170000000
O     5.474000000    -6.376000000     3.957000000
H     4.880000000    -6.909000000     3.427000000
H     4.994000000    -5.562000000     4.109000000
O     2.782000000    -3.298000000     6.194000000
H     3.549000000    -3.013000000     6.691000000
H     2.237000000    -2.514000000     6.125000000
O     5.503000000     1.781000000     3.877000000
H     4.859000000     1.074000000     3.904000000
H     5.761000000     1.905000000     4.791000000
O     7.797000000     1.386000000     2.796000000
H     7.716000000     2.128000000     2.196000000
H     6.896000000     1.168000000     3.031000000
O     6.874000000    -3.881000000     5.964000000
H     7.008000000    -4.813000000     5.792000000
H     7.042000000    -3.784000000     6.901000000
O     2.472000000    -0.551000000     6.548000000
H     3.325000000    -0.827000000     6.883000000
H     2.679000000     0.042000000     5.826000000
O     7.467000000     3.753000000     1.513000000
H     6.556000000     4.010000000     1.659000000
H     7.976000000     4.356000000     2.054000000
O     7.157000000    -3.834000000     2.771000000
H     6.256000000    -3.907000000     3.085000000
H     7.691000000    -4.158000000     3.496000000
O     4.397000000    -3.751000000     3.951000000
H     3.945000000    -3.011000000     3.547000000
H     4.180000000    -3.685000000     4.881000000
O     5.862000000     1.743000000     6.642000000
H     6.366000000     2.186000000     7.324000000
H     5.661000000     0.884000000     7.012000000
O     4.833000000    -1.937000000     7.495000000
H     5.062000000    -2.133000000     8.403000000
H     5.655000000    -2.035000000     7.014000000
O     6.391000000    -1.692000000     1.552000000
H     5.509000000    -1.595000000     1.912000000
H     6.670000000    -2.563000000     1.834000000
O     2.624000000     2.906000000     4.395000000
H     1.879000000     2.930000000     3.795000000
H     3.030000000     2.053000000     4.238000000
O     0.765000000    -0.888000000     8.739000000
H     1.471000000    -0.583000000     8.169000000
H     1.207000000    -1.153000000     9.546000000
O     6.071000000    -1.483000000     4.821000000
H     5.536000000    -1.351000000     4.039000000
H     6.062000000    -2.430000000     4.961000000
O     4.925000000     4.559000000     3.790000000
H     5.039000000     3.635000000     3.570000000
H     5.414000000     4.674000000     4.605000000
