215
-1460.94150
C     3.297000000     3.066000000    -2.221000000
H     2.575000000     3.841000000    -1.976000000
C     3.003000000     1.932000000    -3.035000000
C     4.031000000     0.962000000    -3.364000000
H     3.828000000     0.106000000    -4.002000000
C     1.584000000     1.720000000    -3.615000000
O     0.951000000     2.913000000    -3.903000000
H     1.025000000     1.310000000    -2.761000000
O     1.483000000     0.762000000    -4.793000000
C     0.468000000    -0.194000000    -4.959000000
C     0.781000000    -1.413000000    -4.524000000
H     1.816000000    -1.701000000    -4.353000000
C    -0.131000000    -2.350000000    -4.257000000
O     0.293000000    -3.505000000    -3.663000000
C    -1.510000000    -2.143000000    -4.431000000
C    -2.570000000    -3.149000000    -4.002000000
H    -3.495000000    -2.941000000    -4.545000000
C    -2.801000000    -3.110000000    -2.515000000
C    -3.887000000    -2.405000000    -2.039000000
H    -4.372000000    -1.753000000    -2.761000000
H    -2.262000000    -4.169000000    -4.242000000
C    -1.852000000    -0.824000000    -4.721000000
H    -2.913000000    -0.588000000    -4.731000000
C    -0.917000000     0.172000000    -4.957000000
C    -1.373000000     1.599000000    -5.176000000
H    -2.346000000     1.531000000    -5.668000000
H    -0.632000000     2.039000000    -5.847000000
C    -1.489000000     2.403000000    -3.872000000
C    -2.687000000     2.569000000    -3.204000000
H    -3.631000000     2.172000000    -3.568000000
C    -0.319000000     2.998000000    -3.377000000
C    -0.416000000     3.794000000    -2.192000000
H     0.452000000     4.327000000    -1.813000000
C    -1.591000000     3.823000000    -1.450000000
O    -1.626000000     4.581000000    -0.269000000
C    -1.649000000     3.749000000     0.872000000
C    -0.844000000     4.393000000     2.022000000
C    -1.076000000     3.957000000     3.319000000
H    -2.079000000     3.588000000     3.521000000
C     0.277000000     5.148000000     1.678000000
H     0.387000000     5.553000000     0.675000000
O    -3.033000000     3.545000000     1.291000000
H    -1.136000000     2.790000000     0.706000000
C    -2.730000000     3.258000000    -2.034000000
C    -4.095000000     3.295000000    -1.343000000
H    -4.846000000     3.074000000    -2.104000000
H    -4.372000000     4.306000000    -1.035000000
C    -4.188000000     2.188000000    -0.370000000
C    -4.650000000     0.960000000    -0.732000000
H    -4.931000000     0.736000000    -1.758000000
C    -3.683000000     2.359000000     0.875000000
C    -3.723000000     1.357000000     1.805000000
H    -3.321000000     1.524000000     2.801000000
C    -4.191000000     0.146000000     1.472000000
O    -4.285000000    -0.928000000     2.336000000
C    -3.157000000    -1.804000000     2.183000000
C    -2.510000000    -2.029000000     3.550000000
C    -2.573000000    -1.076000000     4.581000000
H    -3.148000000    -0.165000000     4.440000000
C    -1.783000000    -3.244000000     3.818000000
H    -1.708000000    -3.960000000     3.003000000
O    -3.605000000    -3.001000000     1.562000000
H    -2.312000000    -1.492000000     1.551000000
C    -4.709000000    -0.094000000     0.146000000
C    -5.363000000    -1.415000000    -0.246000000
H    -5.989000000    -1.282000000    -1.130000000
H    -5.996000000    -1.803000000     0.555000000
C    -4.200000000    -2.333000000    -0.664000000
C    -3.434000000    -3.016000000     0.232000000
C    -2.367000000    -3.806000000    -0.214000000
H    -1.697000000    -4.214000000     0.538000000
C    -2.067000000    -3.818000000    -1.598000000
O    -0.970000000    -4.515000000    -1.980000000
C     0.161000000    -3.655000000    -2.237000000
H    -0.100000000    -2.684000000    -1.791000000
C     1.455000000    -4.197000000    -1.565000000
C     2.701000000    -4.059000000    -2.176000000
H     2.750000000    -3.632000000    -3.175000000
C     1.356000000    -4.726000000    -0.300000000
H     0.381000000    -4.767000000     0.178000000
C     2.514000000    -5.043000000     0.420000000
O     2.469000000    -5.476000000     1.726000000
C     3.748000000    -5.010000000    -0.250000000
H     4.620000000    -5.334000000     0.311000000
C     3.811000000    -4.563000000    -1.593000000
O     5.054000000    -4.556000000    -2.184000000
C     5.557000000    -3.489000000    -2.952000000
C     5.639000000    -2.154000000    -2.514000000
H     5.367000000    -1.846000000    -1.507000000
C     5.921000000    -3.816000000    -4.250000000
H     6.008000000    -4.879000000    -4.462000000
C     6.222000000    -2.793000000    -5.132000000
H     6.421000000    -3.059000000    -6.167000000
C     6.207000000    -1.438000000    -4.735000000
H     6.260000000    -0.656000000    -5.489000000
C     5.983000000    -1.164000000    -3.406000000
O     6.272000000     0.144000000    -3.024000000
C     5.272000000     1.088000000    -2.781000000
C     5.569000000     2.200000000    -1.941000000
H     6.519000000     2.207000000    -1.413000000
C     4.523000000     3.136000000    -1.599000000
O     4.885000000     4.185000000    -0.757000000
C     4.214000000     5.329000000    -0.501000000
C     3.750000000     5.353000000     0.831000000
H     3.881000000     4.482000000     1.467000000
C     4.137000000     6.460000000    -1.334000000
H     4.519000000     6.557000000    -2.347000000
C     3.395000000     7.604000000    -0.871000000
H     3.245000000     8.410000000    -1.585000000
C     2.778000000     7.598000000     0.393000000
H     2.097000000     8.387000000     0.702000000
C     2.895000000     6.410000000     1.182000000
O     2.228000000     6.309000000     2.355000000
C     1.152000000     5.499000000     2.709000000
C     0.956000000     5.040000000     4.058000000
H     1.603000000     5.434000000     4.836000000
C    -0.176000000     4.271000000     4.366000000
O    -0.397000000     3.939000000     5.686000000
C    -1.432000000     3.075000000     6.067000000
C    -1.250000000     1.693000000     6.145000000
H    -0.313000000     1.224000000     5.855000000
C    -2.657000000     3.682000000     6.361000000
H    -2.713000000     4.759000000     6.227000000
C    -3.674000000     2.922000000     6.830000000
H    -4.596000000     3.359000000     7.205000000
C    -3.503000000     1.528000000     6.959000000
H    -4.244000000     0.896000000     7.441000000
C    -2.281000000     0.915000000     6.654000000
O    -2.094000000    -0.453000000     6.911000000
C    -2.056000000    -1.381000000     5.861000000
C    -1.364000000    -2.613000000     6.062000000
H    -0.898000000    -2.732000000     7.037000000
C    -1.230000000    -3.550000000     5.070000000
O    -0.670000000    -4.766000000     5.298000000
C    -0.096000000    -5.520000000     4.302000000
C    -0.552000000    -6.830000000     4.138000000
H    -1.323000000    -7.292000000     4.749000000
C     0.006000000    -7.690000000     3.224000000
H    -0.234000000    -8.726000000     3.002000000
C     1.032000000    -7.183000000     2.436000000
H     1.454000000    -7.841000000     1.680000000
C     1.359000000    -5.776000000     2.484000000
C     0.953000000    -5.016000000     3.533000000
H     1.472000000    -4.076000000     3.699000000
C     0.612000000    -0.467000000     2.316000000
H     0.290000000    -0.206000000     3.321000000
C    -0.203000000    -0.101000000     1.252000000
H    -1.174000000     0.346000000     1.448000000
C     0.185000000    -0.295000000    -0.063000000
H    -0.511000000     0.053000000    -0.848000000
C     1.399000000    -0.854000000    -0.302000000
H     1.679000000    -0.978000000    -1.345000000
C     2.300000000    -1.212000000     0.706000000
H     3.218000000    -1.755000000     0.495000000
C     1.858000000    -0.924000000     2.024000000
C     2.793000000    -1.375000000     3.208000000
O     3.965000000    -1.438000000     3.054000000
O     2.311000000    -1.559000000     4.295000000
O     6.863000000    -0.012000000    -0.168000000
H     7.000000000    -0.281000000    -1.077000000
H     6.499000000    -0.788000000     0.259000000
O     8.230000000    -2.920000000     4.921000000
H     8.680000000    -2.663000000     4.117000000
H     8.083000000    -2.096000000     5.387000000
O     2.604000000     2.178000000     6.503000000
H     2.633000000     1.292000000     6.143000000
H     3.052000000     2.716000000     5.851000000
O     1.319000000    -1.517000000     8.229000000
H     1.631000000    -0.616000000     8.144000000
H     1.732000000    -1.983000000     7.502000000
O     4.443000000     1.110000000     2.883000000
H     5.195000000     1.119000000     2.291000000
H     4.417000000     0.216000000     3.225000000
O     7.148000000     2.176000000     1.423000000
H     7.850000000     2.736000000     1.091000000
H     7.050000000     1.495000000     0.757000000
O     3.873000000    -0.322000000     6.195000000
H     4.665000000    -0.856000000     6.261000000
H     3.304000000    -0.810000000     5.601000000
O     0.971000000    -5.269000000     7.502000000
H     1.663000000    -4.749000000     7.093000000
H     0.158000000    -4.888000000     7.172000000
O     3.958000000     3.559000000     4.726000000
H     4.878000000     3.392000000     4.519000000
H     3.512000000     3.521000000     3.880000000
O     4.204000000    -7.617000000     3.103000000
H     3.819000000    -7.121000000     2.381000000
H     4.995000000    -8.008000000     2.731000000
O     8.062000000    -0.190000000     2.817000000
H     7.571000000     0.365000000     3.423000000
H     7.982000000     0.250000000     1.971000000
O     7.145000000    -4.656000000     1.847000000
H     7.666000000    -5.200000000     1.256000000
H     7.233000000    -5.078000000     2.702000000
O     2.545000000    -3.514000000     6.199000000
H     3.489000000    -3.396000000     6.092000000
H     2.159000000    -3.038000000     5.463000000
O     5.561000000    -2.457000000     7.822000000
H     6.400000000    -2.159000000     8.172000000
H     5.792000000    -2.948000000     7.033000000
O     6.622000000     0.881000000     4.954000000
H     5.919000000     0.483000000     5.467000000
H     6.273000000     1.732000000     4.691000000
O     5.750000000    -2.191000000     1.227000000
H     4.988000000    -1.953000000     1.754000000
H     6.047000000    -3.023000000     1.595000000
O     2.257000000     2.268000000     1.533000000
H     1.626000000     1.564000000     1.382000000
H     2.946000000     1.863000000     2.060000000
O     2.667000000     1.087000000     8.905000000
H     2.525000000     1.676000000     8.164000000
H     3.618000000     1.012000000     8.973000000
O     5.532000000    -2.545000000     4.983000000
H     5.161000000    -2.128000000     4.205000000
H     6.301000000    -3.015000000     4.660000000
