215
-1447.47386
C     3.644000000     3.145000000    -2.364000000
H     2.867000000     3.903000000    -2.307000000
C     3.381000000     1.956000000    -2.973000000
C     4.386000000     0.955000000    -3.110000000
H     4.136000000     0.014000000    -3.592000000
C     1.984000000     1.779000000    -3.575000000
O     1.309000000     2.943000000    -4.023000000
H     1.362000000     1.302000000    -2.803000000
O     2.009000000     0.757000000    -4.624000000
C     1.105000000    -0.277000000    -4.620000000
C     1.530000000    -1.470000000    -4.142000000
H     2.549000000    -1.626000000    -3.797000000
C     0.520000000    -2.419000000    -3.812000000
O     0.814000000    -3.489000000    -3.007000000
C    -0.775000000    -2.253000000    -4.239000000
C    -1.893000000    -3.238000000    -3.937000000
H    -2.642000000    -3.177000000    -4.728000000
C    -2.504000000    -3.138000000    -2.562000000
C    -3.653000000    -2.366000000    -2.240000000
H    -4.061000000    -1.629000000    -2.928000000
H    -1.598000000    -4.287000000    -4.004000000
C    -1.092000000    -1.040000000    -4.819000000
H    -2.126000000    -0.831000000    -5.080000000
C    -0.207000000    -0.010000000    -5.039000000
C    -0.698000000     1.404000000    -5.458000000
H    -1.571000000     1.342000000    -6.110000000
H     0.081000000     1.883000000    -6.054000000
C    -1.014000000     2.298000000    -4.209000000
C    -2.302000000     2.380000000    -3.602000000
H    -3.070000000     1.835000000    -4.145000000
C    -0.013000000     3.049000000    -3.586000000
C    -0.280000000     3.864000000    -2.548000000
H     0.550000000     4.322000000    -2.017000000
C    -1.608000000     4.023000000    -2.002000000
O    -1.768000000     4.685000000    -0.797000000
C    -1.895000000     3.797000000     0.369000000
C    -1.064000000     4.365000000     1.541000000
C    -1.393000000     4.152000000     2.877000000
H    -2.258000000     3.512000000     3.031000000
C     0.150000000     4.974000000     1.270000000
H     0.558000000     4.957000000     0.262000000
O    -3.298000000     3.679000000     0.681000000
H    -1.406000000     2.913000000    -0.066000000
C    -2.620000000     3.204000000    -2.567000000
C    -4.049000000     3.283000000    -2.003000000
H    -4.738000000     3.088000000    -2.828000000
H    -4.191000000     4.324000000    -1.708000000
C    -4.231000000     2.291000000    -0.944000000
C    -4.760000000     1.049000000    -1.304000000
H    -5.142000000     0.904000000    -2.311000000
C    -3.756000000     2.449000000     0.335000000
C    -3.874000000     1.437000000     1.292000000
H    -3.408000000     1.507000000     2.271000000
C    -4.416000000     0.228000000     0.951000000
O    -4.416000000    -0.657000000     1.965000000
C    -3.467000000    -1.656000000     1.972000000
C    -2.937000000    -2.027000000     3.376000000
C    -2.523000000    -0.986000000     4.227000000
H    -2.764000000     0.060000000     4.056000000
C    -2.501000000    -3.347000000     3.674000000
H    -2.785000000    -4.170000000     3.024000000
O    -4.017000000    -2.871000000     1.365000000
H    -2.532000000    -1.357000000     1.476000000
C    -4.841000000     0.014000000    -0.372000000
C    -5.388000000    -1.335000000    -0.740000000
H    -6.010000000    -1.270000000    -1.635000000
H    -6.063000000    -1.742000000     0.016000000
C    -4.215000000    -2.296000000    -0.946000000
C    -3.655000000    -3.075000000     0.067000000
C    -2.579000000    -3.870000000    -0.263000000
H    -2.196000000    -4.566000000     0.480000000
C    -2.012000000    -3.825000000    -1.485000000
O    -0.783000000    -4.446000000    -1.573000000
C     0.417000000    -3.556000000    -1.644000000
H     0.147000000    -2.557000000    -1.270000000
C     1.542000000    -4.127000000    -0.860000000
C     2.819000000    -3.608000000    -1.006000000
H     3.174000000    -2.831000000    -1.677000000
C     1.304000000    -4.970000000     0.229000000
H     0.319000000    -5.426000000     0.301000000
C     2.347000000    -5.357000000     1.101000000
O     2.028000000    -6.064000000     2.257000000
C     3.603000000    -4.832000000     1.024000000
H     4.394000000    -5.047000000     1.738000000
C     3.796000000    -3.952000000    -0.015000000
O     5.080000000    -3.527000000    -0.069000000
C     5.643000000    -3.076000000    -1.248000000
C     5.984000000    -1.664000000    -1.345000000
H     5.919000000    -1.055000000    -0.447000000
C     5.525000000    -3.816000000    -2.463000000
H     5.021000000    -4.776000000    -2.536000000
C     6.024000000    -3.263000000    -3.605000000
H     5.916000000    -3.776000000    -4.557000000
C     6.526000000    -1.928000000    -3.614000000
H     6.811000000    -1.448000000    -4.547000000
C     6.370000000    -1.054000000    -2.553000000
O     6.618000000     0.282000000    -2.651000000
C     5.632000000     1.218000000    -2.565000000
C     5.772000000     2.294000000    -1.756000000
H     6.763000000     2.457000000    -1.341000000
C     4.887000000     3.348000000    -1.694000000
O     5.161000000     4.451000000    -0.890000000
C     4.338000000     5.504000000    -0.571000000
C     3.625000000     5.485000000     0.623000000
H     3.810000000     4.610000000     1.241000000
C     4.272000000     6.620000000    -1.390000000
H     4.954000000     6.762000000    -2.224000000
C     3.274000000     7.556000000    -1.147000000
H     3.107000000     8.406000000    -1.803000000
C     2.432000000     7.424000000    -0.006000000
H     1.800000000     8.256000000     0.295000000
C     2.642000000     6.417000000     0.916000000
O     1.973000000     6.349000000     2.110000000
C     0.752000000     5.676000000     2.312000000
C     0.367000000     5.547000000     3.593000000
H     0.972000000     5.849000000     4.444000000
C    -0.632000000     4.695000000     3.906000000
O    -0.871000000     4.432000000     5.267000000
C    -1.614000000     3.360000000     5.759000000
C    -1.107000000     2.049000000     5.805000000
H    -0.160000000     1.792000000     5.338000000
C    -2.860000000     3.619000000     6.259000000
H    -3.178000000     4.656000000     6.313000000
C    -3.578000000     2.583000000     6.844000000
H    -4.526000000     2.718000000     7.358000000
C    -3.175000000     1.278000000     6.741000000
H    -3.738000000     0.445000000     7.154000000
C    -1.877000000     0.974000000     6.297000000
O    -1.360000000    -0.328000000     6.184000000
C    -1.783000000    -1.290000000     5.377000000
C    -1.571000000    -2.636000000     5.779000000
H    -1.013000000    -2.938000000     6.662000000
C    -1.914000000    -3.628000000     4.884000000
O    -1.509000000    -5.004000000     5.117000000
C    -1.068000000    -5.787000000     4.071000000
C    -1.653000000    -6.939000000     3.723000000
H    -2.613000000    -7.250000000     4.126000000
C    -1.084000000    -7.822000000     2.772000000
H    -1.482000000    -8.815000000     2.579000000
C     0.202000000    -7.579000000     2.283000000
H     0.845000000    -8.273000000     1.748000000
C     0.758000000    -6.341000000     2.638000000
C     0.133000000    -5.453000000     3.497000000
H     0.633000000    -4.558000000     3.857000000
C     1.406000000     1.279000000     1.674000000
H     1.425000000     1.882000000     2.578000000
C     0.252000000     0.998000000     0.989000000
H    -0.701000000     1.336000000     1.387000000
C     0.281000000     0.280000000    -0.162000000
H    -0.638000000     0.028000000    -0.599000000
C     1.527000000    -0.274000000    -0.582000000
H     1.512000000    -1.022000000    -1.371000000
C     2.704000000    -0.004000000     0.082000000
H     3.658000000    -0.368000000    -0.291000000
C     2.659000000     0.868000000     1.147000000
C     3.944000000     1.209000000     1.762000000
O     5.033000000     0.846000000     1.342000000
O     3.943000000     1.812000000     2.836000000
O     9.352000000     3.114000000    -0.016000000
H    10.252000000     3.001000000     0.289000000
H     8.924000000     2.282000000     0.188000000
O     9.195000000     1.145000000     3.754000000
H     9.604000000     1.902000000     3.335000000
H     9.139000000     1.384000000     4.679000000
O     3.513000000     3.536000000     6.526000000
H     3.986000000     3.963000000     7.240000000
H     2.594000000     3.574000000     6.791000000
O     3.291000000    -3.840000000     5.734000000
H     3.491000000    -2.964000000     6.065000000
H     2.655000000    -4.192000000     6.358000000
O     6.323000000     4.167000000     2.672000000
H     6.027000000     3.393000000     2.193000000
H     5.627000000     4.337000000     3.306000000
O     9.184000000     4.306000000     3.140000000
H     8.388000000     4.465000000     2.632000000
H     9.839000000     4.882000000     2.746000000
O     2.547000000     0.284000000     5.358000000
H     3.131000000     0.705000000     5.989000000
H     2.695000000     0.760000000     4.540000000
O    10.130000000    -0.342000000     0.797000000
H     9.530000000     0.320000000     1.140000000
H     9.651000000    -0.748000000     0.074000000
O     4.273000000     0.951000000     7.633000000
H     5.059000000     0.636000000     7.187000000
H     4.538000000     1.781000000     8.029000000
O     8.357000000     5.648000000    -0.199000000
H     8.861000000     4.857000000    -0.010000000
H     7.519000000     5.325000000    -0.531000000
O     6.942000000    -3.317000000     2.553000000
H     6.715000000    -3.133000000     1.642000000
H     6.542000000    -2.602000000     3.048000000
O     5.704000000    -0.965000000     3.096000000
H     5.467000000    -0.537000000     2.274000000
H     4.942000000    -0.838000000     3.661000000
O     7.284000000     3.765000000     5.950000000
H     7.922000000     3.883000000     5.246000000
H     6.685000000     3.096000000     5.621000000
O     6.237000000    -0.417000000     6.019000000
H     6.216000000    -0.059000000     5.132000000
H     7.097000000    -0.170000000     6.358000000
O     1.986000000    -0.744000000     8.095000000
H     1.804000000    -0.447000000     7.203000000
H     2.613000000    -0.106000000     8.436000000
O     7.799000000     0.974000000     1.317000000
H     6.861000000     1.138000000     1.222000000
H     7.946000000     0.963000000     2.263000000
O     3.946000000     4.580000000     4.056000000
H     3.838000000     4.386000000     4.987000000
H     3.676000000     3.777000000     3.611000000
O     5.656000000     2.109000000     4.776000000
H     5.053000000     1.929000000     4.055000000
H     5.106000000     2.498000000     5.457000000
O     7.555000000     6.511000000     2.255000000
H     7.687000000     6.537000000     1.307000000
H     7.035000000     5.722000000     2.403000000
