215
-1445.57967
C     3.392000000     2.420000000    -2.332000000
H     2.733000000     3.242000000    -2.068000000
C     2.971000000     1.313000000    -3.106000000
C     3.918000000     0.271000000    -3.318000000
H     3.701000000    -0.555000000    -3.991000000
C     1.586000000     1.200000000    -3.657000000
O     1.006000000     2.399000000    -4.046000000
H     1.017000000     0.720000000    -2.847000000
O     1.506000000     0.260000000    -4.762000000
C     0.590000000    -0.705000000    -4.671000000
C     0.961000000    -1.899000000    -4.181000000
H     2.001000000    -2.006000000    -3.883000000
C    -0.020000000    -2.777000000    -3.662000000
O     0.315000000    -3.980000000    -2.982000000
C    -1.314000000    -2.506000000    -3.959000000
C    -2.429000000    -3.501000000    -3.521000000
H    -3.315000000    -3.481000000    -4.159000000
C    -2.914000000    -3.291000000    -2.087000000
C    -4.043000000    -2.495000000    -1.737000000
H    -4.553000000    -1.954000000    -2.530000000
H    -2.093000000    -4.527000000    -3.683000000
C    -1.699000000    -1.357000000    -4.588000000
H    -2.731000000    -1.136000000    -4.849000000
C    -0.721000000    -0.432000000    -4.971000000
C    -1.214000000     0.949000000    -5.403000000
H    -2.111000000     0.816000000    -6.011000000
H    -0.413000000     1.349000000    -6.029000000
C    -1.430000000     1.985000000    -4.244000000
C    -2.640000000     2.140000000    -3.637000000
H    -3.452000000     1.569000000    -4.082000000
C    -0.291000000     2.639000000    -3.691000000
C    -0.421000000     3.574000000    -2.682000000
H     0.479000000     4.048000000    -2.299000000
C    -1.668000000     3.676000000    -2.078000000
O    -1.663000000     4.414000000    -0.924000000
C    -1.709000000     3.691000000     0.285000000
C    -0.828000000     4.398000000     1.320000000
C    -1.136000000     4.373000000     2.702000000
H    -2.098000000     3.982000000     3.021000000
C     0.408000000     5.007000000     0.956000000
H     0.610000000     5.131000000    -0.105000000
O    -3.075000000     3.626000000     0.791000000
H    -1.271000000     2.697000000     0.111000000
C    -2.817000000     2.921000000    -2.515000000
C    -4.182000000     3.144000000    -1.861000000
H    -4.939000000     3.165000000    -2.647000000
H    -4.275000000     4.136000000    -1.414000000
C    -4.331000000     2.159000000    -0.680000000
C    -4.884000000     0.887000000    -0.924000000
H    -5.254000000     0.722000000    -1.933000000
C    -3.861000000     2.537000000     0.545000000
C    -4.022000000     1.619000000     1.570000000
H    -3.650000000     1.925000000     2.544000000
C    -4.600000000     0.355000000     1.389000000
O    -4.585000000    -0.575000000     2.354000000
C    -3.553000000    -1.491000000     2.407000000
C    -2.853000000    -1.491000000     3.841000000
C    -2.744000000    -0.323000000     4.648000000
H    -3.201000000     0.618000000     4.352000000
C    -2.195000000    -2.639000000     4.196000000
H    -2.322000000    -3.584000000     3.676000000
O    -3.978000000    -2.763000000     1.962000000
H    -2.744000000    -1.190000000     1.726000000
C    -5.009000000    -0.012000000     0.109000000
C    -5.588000000    -1.408000000    -0.151000000
H    -6.344000000    -1.315000000    -0.933000000
H    -6.174000000    -1.757000000     0.701000000
C    -4.469000000    -2.347000000    -0.444000000
C    -3.751000000    -3.021000000     0.565000000
C    -2.633000000    -3.825000000     0.319000000
H    -2.180000000    -4.360000000     1.150000000
C    -2.248000000    -3.947000000    -1.056000000
O    -1.056000000    -4.626000000    -1.291000000
C     0.122000000    -3.866000000    -1.622000000
H    -0.201000000    -2.832000000    -1.426000000
C     1.453000000    -4.055000000    -0.879000000
C     2.672000000    -4.265000000    -1.511000000
H     2.729000000    -4.269000000    -2.597000000
C     1.338000000    -4.256000000     0.508000000
H     0.334000000    -4.281000000     0.925000000
C     2.477000000    -4.532000000     1.241000000
O     2.518000000    -4.537000000     2.639000000
C     3.702000000    -4.680000000     0.667000000
H     4.587000000    -4.768000000     1.292000000
C     3.817000000    -4.610000000    -0.724000000
O     5.062000000    -4.759000000    -1.378000000
C     5.550000000    -4.010000000    -2.432000000
C     5.524000000    -2.619000000    -2.344000000
H     5.142000000    -2.141000000    -1.446000000
C     6.066000000    -4.606000000    -3.556000000
H     6.156000000    -5.688000000    -3.586000000
C     6.652000000    -3.861000000    -4.645000000
H     7.113000000    -4.465000000    -5.422000000
C     6.610000000    -2.456000000    -4.582000000
H     7.005000000    -1.819000000    -5.370000000
C     6.043000000    -1.836000000    -3.445000000
O     6.237000000    -0.497000000    -3.199000000
C     5.270000000     0.460000000    -2.926000000
C     5.641000000     1.575000000    -2.344000000
H     6.702000000     1.741000000    -2.174000000
C     4.731000000     2.560000000    -2.064000000
O     5.225000000     3.751000000    -1.579000000
C     4.473000000     4.865000000    -1.234000000
C     3.771000000     4.925000000    -0.084000000
H     3.744000000     4.071000000     0.588000000
C     4.537000000     6.034000000    -2.021000000
H     5.116000000     5.946000000    -2.936000000
C     3.923000000     7.182000000    -1.701000000
H     4.100000000     8.086000000    -2.278000000
C     3.359000000     7.207000000    -0.450000000
H     2.980000000     8.174000000    -0.130000000
C     3.149000000     6.059000000     0.345000000
O     2.466000000     6.074000000     1.574000000
C     1.290000000     5.412000000     1.921000000
C     1.041000000     5.286000000     3.292000000
H     1.781000000     5.684000000     3.982000000
C    -0.147000000     4.742000000     3.708000000
O    -0.473000000     4.802000000     5.077000000
C    -1.466000000     4.010000000     5.535000000
C    -1.163000000     2.713000000     5.983000000
H    -0.109000000     2.445000000     6.001000000
C    -2.727000000     4.611000000     5.660000000
H    -2.772000000     5.654000000     5.355000000
C    -3.748000000     3.869000000     6.222000000
H    -4.756000000     4.276000000     6.203000000
C    -3.475000000     2.563000000     6.676000000
H    -4.334000000     1.963000000     6.967000000
C    -2.204000000     1.951000000     6.516000000
O    -2.049000000     0.621000000     6.842000000
C    -2.078000000    -0.414000000     5.854000000
C    -1.557000000    -1.669000000     6.337000000
H    -1.126000000    -1.750000000     7.332000000
C    -1.583000000    -2.731000000     5.436000000
O    -1.002000000    -3.875000000     5.818000000
C    -0.272000000    -4.699000000     4.996000000
C    -0.755000000    -6.011000000     4.748000000
H    -1.662000000    -6.433000000     5.173000000
C    -0.015000000    -6.896000000     4.013000000
H    -0.250000000    -7.942000000     3.834000000
C     1.097000000    -6.390000000     3.334000000
H     1.610000000    -7.054000000     2.643000000
C     1.438000000    -5.028000000     3.423000000
C     0.817000000    -4.227000000     4.326000000
H     1.229000000    -3.234000000     4.485000000
C     1.797000000     1.562000000     2.371000000
H     1.851000000     2.328000000     3.141000000
C     0.524000000     1.262000000     1.844000000
H    -0.368000000     1.730000000     2.252000000
C     0.443000000     0.324000000     0.784000000
H    -0.487000000    -0.152000000     0.482000000
C     1.660000000    -0.283000000     0.307000000
H     1.729000000    -0.999000000    -0.507000000
C     2.851000000     0.077000000     0.833000000
H     3.743000000    -0.330000000     0.364000000
C     2.973000000     1.011000000     1.868000000
C     4.297000000     1.256000000     2.502000000
O     5.265000000     0.925000000     1.861000000
O     4.424000000     1.709000000     3.625000000
O     7.757000000     5.408000000    -0.567000000
H     7.123000000     4.872000000    -0.091000000
H     7.877000000     4.954000000    -1.401000000
O     8.554000000    -0.530000000     1.439000000
H     8.396000000    -0.319000000     0.519000000
H     9.312000000    -1.115000000     1.423000000
O     8.871000000     2.604000000     0.675000000
H     8.004000000     2.722000000     1.065000000
H     9.288000000     3.462000000     0.756000000
O     4.964000000     5.721000000     7.161000000
H     4.149000000     6.027000000     7.561000000
H     4.685000000     5.071000000     6.517000000
O     3.410000000    -2.752000000     6.209000000
H     3.989000000    -2.265000000     6.796000000
H     2.925000000    -2.076000000     5.736000000
O     6.341000000     3.117000000     1.361000000
H     6.069000000     2.199000000     1.359000000
H     5.663000000     3.567000000     1.865000000
O     8.674000000     1.716000000     5.930000000
H     7.997000000     2.332000000     6.208000000
H     8.399000000     1.436000000     5.057000000
O     2.822000000    -1.619000000     3.652000000
H     3.551000000    -1.852000000     3.078000000
H     2.170000000    -1.234000000     3.067000000
O     1.357000000     0.010000000     7.574000000
H     1.600000000     0.325000000     8.445000000
H     2.012000000     0.392000000     6.990000000
O     5.812000000    -1.967000000     7.495000000
H     6.250000000    -1.794000000     6.662000000
H     5.801000000    -1.119000000     7.940000000
O     3.091000000     0.515000000     5.611000000
H     3.855000000     0.933000000     5.213000000
H     2.784000000    -0.102000000     4.948000000
O     7.390000000     1.337000000     3.395000000
H     7.774000000     0.633000000     2.872000000
H     6.533000000     1.491000000     2.998000000
O     6.340000000    -0.864000000     4.978000000
H     6.461000000    -0.562000000     4.078000000
H     6.279000000    -0.060000000     5.494000000
O     7.531000000    -3.422000000     2.786000000
H     8.466000000    -3.247000000     2.686000000
H     7.389000000    -3.428000000     3.733000000
O     5.889000000     2.102000000     7.421000000
H     6.106000000     2.655000000     8.172000000
H     5.175000000     2.565000000     6.981000000
O     4.981000000    -1.844000000     1.966000000
H     5.147000000    -0.910000000     1.845000000
H     5.806000000    -2.193000000     2.303000000
O     5.188000000     4.831000000     3.073000000
H     6.050000000     4.689000000     3.465000000
H     4.570000000     4.628000000     3.775000000
O     7.676000000     4.216000000     3.916000000
H     7.591000000     3.353000000     3.511000000
H     8.486000000     4.573000000     3.553000000
O     4.173000000     3.482000000     5.502000000
H     4.332000000     2.889000000     4.767000000
H     3.514000000     3.034000000     6.032000000
