215
-1444.36949
C     4.071000000     2.788000000    -2.307000000
H     3.513000000     3.682000000    -2.573000000
C     3.521000000     1.501000000    -2.599000000
C     4.306000000     0.326000000    -2.340000000
H     3.980000000    -0.646000000    -2.701000000
C     2.203000000     1.292000000    -3.267000000
O     1.740000000     2.397000000    -3.961000000
H     1.530000000     1.129000000    -2.411000000
O     2.257000000     0.210000000    -4.147000000
C     1.252000000    -0.722000000    -4.325000000
C     1.469000000    -1.984000000    -3.852000000
H     2.436000000    -2.173000000    -3.392000000
C     0.420000000    -2.887000000    -3.832000000
O     0.676000000    -4.046000000    -3.180000000
C    -0.917000000    -2.519000000    -4.228000000
C    -2.046000000    -3.483000000    -3.866000000
H    -2.937000000    -3.483000000    -4.496000000
C    -2.628000000    -3.263000000    -2.496000000
C    -3.734000000    -2.460000000    -2.350000000
H    -4.067000000    -1.862000000    -3.194000000
H    -1.657000000    -4.492000000    -4.023000000
C    -1.080000000    -1.216000000    -4.640000000
H    -2.062000000    -0.869000000    -4.950000000
C    -0.020000000    -0.417000000    -4.787000000
C    -0.336000000     0.948000000    -5.419000000
H    -1.238000000     0.876000000    -6.031000000
H     0.453000000     1.220000000    -6.123000000
C    -0.610000000     2.092000000    -4.443000000
C    -1.952000000     2.321000000    -4.161000000
H    -2.769000000     1.740000000    -4.580000000
C     0.437000000     2.750000000    -3.772000000
C     0.134000000     3.602000000    -2.742000000
H     0.939000000     4.042000000    -2.159000000
C    -1.164000000     3.889000000    -2.409000000
O    -1.436000000     4.654000000    -1.267000000
C    -1.756000000     3.931000000    -0.065000000
C    -0.907000000     4.396000000     1.155000000
C    -1.481000000     4.549000000     2.390000000
H    -2.551000000     4.434000000     2.542000000
C     0.538000000     4.535000000     1.063000000
H     1.048000000     4.329000000     0.125000000
O    -3.198000000     4.017000000     0.241000000
H    -1.397000000     2.921000000    -0.312000000
C    -2.244000000     3.215000000    -3.081000000
C    -3.703000000     3.358000000    -2.541000000
H    -4.445000000     3.262000000    -3.336000000
H    -3.934000000     4.377000000    -2.225000000
C    -4.085000000     2.425000000    -1.357000000
C    -4.538000000     1.103000000    -1.612000000
H    -4.725000000     0.827000000    -2.647000000
C    -3.895000000     2.811000000    -0.036000000
C    -4.194000000     1.956000000     1.013000000
H    -3.942000000     2.163000000     2.050000000
C    -4.617000000     0.662000000     0.803000000
O    -4.569000000    -0.170000000     1.896000000
C    -3.438000000    -1.177000000     1.902000000
C    -2.890000000    -1.252000000     3.326000000
C    -3.100000000    -0.278000000     4.296000000
H    -3.784000000     0.536000000     4.071000000
C    -2.088000000    -2.287000000     3.682000000
H    -1.794000000    -3.068000000     2.985000000
O    -3.912000000    -2.439000000     1.310000000
H    -2.629000000    -0.789000000     1.265000000
C    -4.868000000     0.288000000    -0.544000000
C    -5.338000000    -1.154000000    -0.846000000
H    -6.030000000    -1.150000000    -1.691000000
H    -5.944000000    -1.349000000     0.041000000
C    -4.207000000    -2.189000000    -1.081000000
C    -3.648000000    -2.824000000     0.056000000
C    -2.514000000    -3.627000000    -0.142000000
H    -1.978000000    -4.012000000     0.721000000
C    -2.072000000    -3.921000000    -1.459000000
O    -0.911000000    -4.638000000    -1.547000000
C     0.355000000    -4.021000000    -1.752000000
H     0.128000000    -2.996000000    -1.424000000
C     1.333000000    -4.662000000    -0.846000000
C     2.725000000    -4.633000000    -1.220000000
H     2.973000000    -4.287000000    -2.220000000
C     0.969000000    -4.999000000     0.442000000
H    -0.035000000    -4.766000000     0.787000000
C     1.904000000    -5.698000000     1.226000000
O     1.602000000    -6.279000000     2.424000000
C     3.183000000    -5.807000000     0.797000000
H     3.867000000    -6.346000000     1.448000000
C     3.686000000    -5.236000000    -0.397000000
O     5.032000000    -5.204000000    -0.725000000
C     5.503000000    -4.237000000    -1.668000000
C     5.587000000    -2.886000000    -1.265000000
H     5.235000000    -2.663000000    -0.261000000
C     5.923000000    -4.569000000    -2.939000000
H     5.863000000    -5.611000000    -3.241000000
C     6.318000000    -3.562000000    -3.812000000
H     6.515000000    -3.782000000    -4.858000000
C     6.539000000    -2.253000000    -3.339000000
H     6.951000000    -1.454000000    -3.950000000
C     6.165000000    -1.914000000    -2.074000000
O     6.392000000    -0.613000000    -1.580000000
C     5.547000000     0.481000000    -1.756000000
C     6.009000000     1.722000000    -1.350000000
H     6.896000000     1.774000000    -0.723000000
C     5.275000000     2.903000000    -1.617000000
O     5.829000000     4.064000000    -1.247000000
C     4.988000000     4.981000000    -0.688000000
C     4.206000000     4.571000000     0.385000000
H     4.243000000     3.541000000     0.731000000
C     4.974000000     6.256000000    -1.225000000
H     5.727000000     6.401000000    -1.996000000
C     4.094000000     7.172000000    -0.646000000
H     4.001000000     8.158000000    -1.094000000
C     3.271000000     6.850000000     0.461000000
H     2.596000000     7.470000000     1.046000000
C     3.345000000     5.578000000     0.994000000
O     2.629000000     5.304000000     2.118000000
C     1.258000000     5.051000000     2.169000000
C     0.602000000     5.122000000     3.439000000
H     1.139000000     5.319000000     4.363000000
C    -0.751000000     4.866000000     3.517000000
O    -1.439000000     5.038000000     4.715000000
C    -2.352000000     4.165000000     5.257000000
C    -2.147000000     2.762000000     5.412000000
H    -1.213000000     2.359000000     5.029000000
C    -3.431000000     4.738000000     5.866000000
H    -3.560000000     5.813000000     5.771000000
C    -4.460000000     4.001000000     6.469000000
H    -5.366000000     4.474000000     6.838000000
C    -4.275000000     2.633000000     6.561000000
H    -5.047000000     2.110000000     7.119000000
C    -3.078000000     2.020000000     6.173000000
O    -2.881000000     0.681000000     6.539000000
C    -2.569000000    -0.304000000     5.587000000
C    -1.776000000    -1.389000000     5.898000000
H    -1.277000000    -1.361000000     6.863000000
C    -1.571000000    -2.401000000     4.995000000
O    -0.767000000    -3.488000000     5.374000000
C    -0.756000000    -4.647000000     4.620000000
C    -1.807000000    -5.513000000     4.450000000
H    -2.703000000    -5.407000000     5.056000000
C    -1.708000000    -6.645000000     3.641000000
H    -2.551000000    -7.324000000     3.741000000
C    -0.548000000    -6.933000000     2.917000000
H    -0.535000000    -7.796000000     2.255000000
C     0.492000000    -6.034000000     3.073000000
C     0.420000000    -4.897000000     3.892000000
H     1.360000000    -4.403000000     4.124000000
C     1.753000000     1.449000000     1.819000000
H     1.719000000     2.128000000     2.667000000
C     0.719000000     1.330000000     0.966000000
H    -0.178000000     1.940000000     1.026000000
C     0.725000000     0.342000000    -0.022000000
H    -0.106000000     0.285000000    -0.777000000
C     1.865000000    -0.481000000    -0.145000000
H     1.824000000    -1.266000000    -0.895000000
C     2.998000000    -0.284000000     0.637000000
H     3.789000000    -1.023000000     0.542000000
C     2.916000000     0.692000000     1.651000000
C     4.051000000     0.832000000     2.603000000
O     4.727000000    -0.064000000     2.867000000
O     4.250000000     1.882000000     3.237000000
O     7.637000000    -3.209000000     1.392000000
H     7.050000000    -3.956000000     1.277000000
H     8.193000000    -3.219000000     0.613000000
O     6.474000000     1.931000000     7.573000000
H     6.626000000     1.522000000     6.722000000
H     6.862000000     1.324000000     8.204000000
O     8.843000000     0.194000000    -0.237000000
H     8.285000000    -0.512000000     0.091000000
H     8.706000000     0.187000000    -1.184000000
O     6.059000000     4.385000000     6.397000000
H     5.901000000     3.524000000     6.784000000
H     5.276000000     4.560000000     5.875000000
O     7.295000000    -0.704000000     2.326000000
H     7.243000000    -1.640000000     2.130000000
H     6.403000000    -0.462000000     2.576000000
O     1.937000000    -1.824000000     6.453000000
H     1.222000000    -2.329000000     6.065000000
H     1.947000000    -2.091000000     7.372000000
O     6.898000000    -2.080000000     7.881000000
H     6.392000000    -1.960000000     7.077000000
H     7.799000000    -1.879000000     7.629000000
O     2.631000000     1.771000000     5.596000000
H     3.270000000     1.741000000     4.885000000
H     3.145000000     1.611000000     6.388000000
O     8.996000000     1.660000000     2.294000000
H     8.659000000     0.979000000     1.713000000
H     8.232000000     2.197000000     2.503000000
O     4.814000000    -1.689000000     5.864000000
H     3.893000000    -1.429000000     5.832000000
H     5.283000000    -0.962000000     5.455000000
O     0.705000000     3.430000000     6.761000000
H     0.093000000     2.809000000     7.156000000
H     1.291000000     2.887000000     6.234000000
O     5.064000000    -5.420000000     3.570000000
H     4.986000000    -4.590000000     3.100000000
H     4.516000000    -5.307000000     4.348000000
O     2.476000000     0.208000000     8.257000000
H     2.068000000    -0.097000000     7.447000000
H     1.740000000     0.432000000     8.826000000
O     6.372000000     0.577000000     5.215000000
H     7.318000000     0.544000000     5.070000000
H     5.993000000     0.515000000     4.339000000
O     6.262000000     6.226000000     3.403000000
H     5.601000000     6.914000000     3.480000000
H     5.879000000     5.474000000     3.855000000
O     4.597000000    -2.690000000     3.054000000
H     4.554000000    -2.682000000     4.010000000
H     4.712000000    -1.771000000     2.812000000
O     6.784000000     2.913000000     3.160000000
H     6.008000000     2.355000000     3.095000000
H     6.471000000     3.709000000     3.591000000
O     9.631000000    -0.686000000     3.730000000
H     8.820000000    -0.562000000     3.236000000
H     9.864000000     0.191000000     4.032000000
O     4.543000000     4.269000000     4.141000000
H     4.437000000     3.324000000     4.026000000
H     3.773000000     4.649000000     3.718000000
