215
-1423.97055
C     3.723000000     2.484000000    -2.078000000
H     2.937000000     3.234000000    -2.047000000
C     3.506000000     1.336000000    -2.743000000
C     4.557000000     0.445000000    -2.857000000
H     4.393000000    -0.490000000    -3.386000000
C     2.140000000     1.198000000    -3.439000000
O     1.679000000     2.383000000    -4.122000000
H     1.452000000     0.879000000    -2.642000000
O     2.174000000     0.109000000    -4.388000000
C     1.255000000    -0.852000000    -4.343000000
C     1.620000000    -1.950000000    -3.538000000
H     2.598000000    -2.037000000    -3.072000000
C     0.614000000    -2.961000000    -3.421000000
O     0.886000000    -4.024000000    -2.587000000
C    -0.640000000    -2.751000000    -3.967000000
C    -1.791000000    -3.689000000    -3.647000000
H    -2.549000000    -3.712000000    -4.433000000
C    -2.583000000    -3.505000000    -2.288000000
C    -3.632000000    -2.622000000    -2.214000000
H    -3.979000000    -2.295000000    -3.191000000
H    -1.425000000    -4.713000000    -3.746000000
C    -1.012000000    -1.565000000    -4.618000000
H    -2.022000000    -1.333000000    -4.945000000
C    -0.026000000    -0.586000000    -4.852000000
C    -0.359000000     0.723000000    -5.455000000
H    -1.244000000     0.474000000    -6.043000000
H     0.440000000     1.035000000    -6.131000000
C    -0.633000000     1.865000000    -4.552000000
C    -1.895000000     2.072000000    -4.129000000
H    -2.749000000     1.514000000    -4.505000000
C     0.374000000     2.684000000    -3.959000000
C     0.082000000     3.621000000    -2.969000000
H     0.921000000     4.221000000    -2.627000000
C    -1.203000000     3.811000000    -2.506000000
O    -1.366000000     4.568000000    -1.337000000
C    -1.639000000     3.870000000    -0.099000000
C    -0.815000000     4.589000000     1.044000000
C    -1.177000000     4.509000000     2.350000000
H    -2.081000000     3.958000000     2.596000000
C     0.332000000     5.299000000     0.671000000
H     0.587000000     5.398000000    -0.381000000
O    -3.057000000     3.846000000     0.087000000
H    -1.163000000     2.878000000    -0.114000000
C    -2.229000000     3.061000000    -3.158000000
C    -3.689000000     3.225000000    -2.649000000
H    -4.385000000     3.007000000    -3.462000000
H    -3.784000000     4.304000000    -2.513000000
C    -3.909000000     2.226000000    -1.464000000
C    -4.433000000     1.002000000    -1.707000000
H    -4.592000000     0.626000000    -2.714000000
C    -3.691000000     2.670000000    -0.172000000
C    -3.899000000     1.827000000     0.867000000
H    -3.708000000     2.166000000     1.882000000
C    -4.452000000     0.595000000     0.624000000
O    -4.517000000    -0.155000000     1.779000000
C    -3.592000000    -1.220000000     2.044000000
C    -3.116000000    -1.372000000     3.508000000
C    -3.008000000    -0.236000000     4.354000000
H    -3.326000000     0.732000000     3.976000000
C    -2.587000000    -2.598000000     3.961000000
H    -2.600000000    -3.424000000     3.254000000
O    -4.100000000    -2.379000000     1.398000000
H    -2.740000000    -0.980000000     1.392000000
C    -4.765000000     0.148000000    -0.631000000
C    -5.403000000    -1.243000000    -0.963000000
H    -5.848000000    -1.226000000    -1.960000000
H    -6.167000000    -1.458000000    -0.213000000
C    -4.256000000    -2.282000000    -1.025000000
C    -3.656000000    -2.813000000     0.175000000
C    -2.559000000    -3.673000000     0.074000000
H    -2.062000000    -4.027000000     0.974000000
C    -2.039000000    -4.098000000    -1.138000000
O    -0.824000000    -4.842000000    -1.178000000
C     0.373000000    -4.050000000    -1.246000000
H     0.217000000    -2.999000000    -0.961000000
C     1.385000000    -4.529000000    -0.245000000
C     2.719000000    -4.378000000    -0.503000000
H     3.031000000    -3.911000000    -1.434000000
C     1.068000000    -5.022000000     1.046000000
H     0.029000000    -5.131000000     1.346000000
C     2.064000000    -5.306000000     1.969000000
O     1.846000000    -5.903000000     3.140000000
C     3.369000000    -5.049000000     1.670000000
H     4.105000000    -5.242000000     2.447000000
C     3.684000000    -4.596000000     0.410000000
O     5.052000000    -4.253000000     0.182000000
C     5.558000000    -3.612000000    -0.978000000
C     5.940000000    -2.283000000    -1.005000000
H     5.778000000    -1.674000000    -0.119000000
C     5.736000000    -4.422000000    -2.148000000
H     5.607000000    -5.501000000    -2.149000000
C     6.228000000    -3.869000000    -3.315000000
H     6.191000000    -4.389000000    -4.269000000
C     6.592000000    -2.499000000    -3.280000000
H     6.824000000    -1.925000000    -4.173000000
C     6.560000000    -1.722000000    -2.109000000
O     6.770000000    -0.377000000    -2.260000000
C     5.725000000     0.638000000    -2.188000000
C     5.966000000     1.768000000    -1.508000000
H     6.885000000     1.956000000    -0.959000000
C     4.926000000     2.709000000    -1.431000000
O     5.177000000     3.936000000    -0.865000000
C     4.304000000     4.959000000    -0.898000000
C     3.724000000     5.350000000     0.266000000
H     3.842000000     4.597000000     1.042000000
C     4.198000000     5.781000000    -2.034000000
H     4.713000000     5.550000000    -2.963000000
C     3.397000000     6.906000000    -2.059000000
H     3.110000000     7.386000000    -2.991000000
C     2.704000000     7.247000000    -0.882000000
H     1.932000000     8.009000000    -0.950000000
C     2.937000000     6.492000000     0.286000000
O     2.088000000     6.865000000     1.351000000
C     1.043000000     6.007000000     1.609000000
C     0.634000000     5.900000000     2.945000000
H     1.302000000     6.406000000     3.637000000
C    -0.536000000     5.208000000     3.348000000
O    -0.860000000     5.142000000     4.730000000
C    -1.872000000     4.261000000     5.190000000
C    -1.596000000     2.922000000     5.429000000
H    -0.621000000     2.530000000     5.147000000
C    -3.155000000     4.690000000     5.403000000
H    -3.407000000     5.717000000     5.151000000
C    -4.171000000     3.763000000     5.774000000
H    -5.200000000     4.037000000     5.990000000
C    -3.827000000     2.453000000     6.121000000
H    -4.519000000     1.753000000     6.582000000
C    -2.528000000     2.042000000     5.948000000
O    -2.176000000     0.796000000     6.383000000
C    -2.344000000    -0.341000000     5.598000000
C    -1.891000000    -1.540000000     6.017000000
H    -1.406000000    -1.613000000     6.987000000
C    -2.024000000    -2.696000000     5.242000000
O    -1.654000000    -3.938000000     5.723000000
C    -1.230000000    -4.992000000     4.969000000
C    -2.042000000    -6.069000000     4.664000000
H    -2.965000000    -6.130000000     5.236000000
C    -1.583000000    -7.104000000     3.834000000
H    -2.167000000    -8.003000000     3.651000000
C    -0.299000000    -7.106000000     3.344000000
H     0.019000000    -7.998000000     2.812000000
C     0.535000000    -5.979000000     3.616000000
C     0.051000000    -4.939000000     4.359000000
H     0.793000000    -4.175000000     4.576000000
C     2.011000000     2.198000000     2.274000000
H     1.949000000     2.816000000     3.166000000
C     0.927000000     1.580000000     1.759000000
H    -0.076000000     1.830000000     2.095000000
C     0.974000000     0.637000000     0.690000000
H     0.057000000     0.152000000     0.318000000
C     2.257000000     0.231000000     0.225000000
H     2.312000000    -0.590000000    -0.485000000
C     3.364000000     0.787000000     0.860000000
H     4.324000000     0.452000000     0.476000000
C     3.279000000     1.819000000     1.807000000
C     4.528000000     2.360000000     2.412000000
O     5.536000000     1.618000000     2.469000000
O     4.542000000     3.319000000     3.152000000
O     3.399000000    -0.934000000     5.716000000
H     2.553000000    -0.487000000     5.677000000
H     3.868000000    -0.626000000     4.940000000
O    10.573000000     3.142000000     1.969000000
H     9.804000000     2.583000000     1.861000000
H    10.928000000     2.898000000     2.824000000
O     2.868000000     7.156000000     5.800000000
H     3.208000000     6.490000000     5.203000000
H     1.975000000     6.871000000     5.994000000
O     1.456000000     4.168000000     7.217000000
H     1.481000000     3.211000000     7.209000000
H     0.592000000     4.381000000     7.570000000
O     8.483000000     1.772000000     6.911000000
H     7.630000000     1.786000000     7.346000000
H     8.276000000     1.701000000     5.979000000
O     7.952000000     1.494000000     1.312000000
H     8.431000000     0.665000000     1.315000000
H     7.109000000     1.285000000     1.714000000
O     1.993000000    -2.254000000     2.899000000
H     2.803000000    -1.758000000     3.013000000
H     1.697000000    -2.030000000     2.017000000
O     6.376000000     6.246000000     6.270000000
H     6.488000000     7.196000000     6.288000000
H     5.730000000     6.094000000     5.580000000
O     3.644000000     1.297000000     8.653000000
H     3.030000000     1.573000000     7.973000000
H     3.347000000     1.750000000     9.442000000
O     6.439000000     6.615000000     2.843000000
H     6.865000000     5.791000000     2.608000000
H     6.147000000     6.981000000     2.008000000
O     0.643000000    -0.371000000     4.531000000
H    -0.267000000    -0.136000000     4.347000000
H     0.871000000    -1.000000000     3.846000000
O     7.482000000     0.847000000     4.430000000
H     7.267000000    -0.074000000     4.578000000
H     6.875000000     1.128000000     3.745000000
O     5.966000000     3.181000000     5.716000000
H     6.176000000     2.266000000     5.529000000
H     5.311000000     3.416000000     5.059000000
O     6.764000000    -2.356000000     2.651000000
H     7.596000000    -2.591000000     3.062000000
H     6.420000000    -3.184000000     2.316000000
O     6.279000000     2.290000000     8.364000000
H     5.500000000     1.816000000     8.652000000
H     5.943000000     2.973000000     7.784000000
O     4.619000000    -0.735000000     3.452000000
H     4.628000000    -0.007000000     2.832000000
H     5.404000000    -1.240000000     3.240000000
O     7.307000000     4.087000000     2.391000000
H     7.772000000     3.414000000     1.893000000
H     6.437000000     3.716000000     2.539000000
O     9.061000000     4.347000000     4.870000000
H     8.565000000     4.380000000     4.052000000
H     8.498000000     3.858000000     5.471000000
O     4.343000000     5.679000000     4.049000000
H     4.727000000     6.190000000     3.336000000
H     4.427000000     4.769000000     3.764000000
