215
-1445.75871
C     3.653000000     2.822000000    -0.553000000
H     2.799000000     3.436000000    -0.279000000
C     3.651000000     2.171000000    -1.831000000
C     4.650000000     1.213000000    -2.035000000
H     4.733000000     0.558000000    -2.898000000
C     2.386000000     2.181000000    -2.658000000
O     1.991000000     3.564000000    -3.021000000
H     1.637000000     1.748000000    -1.979000000
O     2.555000000     1.406000000    -3.853000000
C     1.548000000     0.614000000    -4.236000000
C     1.776000000    -0.753000000    -4.031000000
H     2.680000000    -1.084000000    -3.525000000
C     0.778000000    -1.684000000    -4.287000000
O     1.092000000    -2.919000000    -3.856000000
C    -0.487000000    -1.222000000    -4.626000000
C    -1.704000000    -2.189000000    -4.774000000
H    -2.353000000    -1.757000000    -5.539000000
C    -2.422000000    -2.487000000    -3.469000000
C    -3.532000000    -1.663000000    -3.148000000
H    -3.827000000    -0.921000000    -3.886000000
H    -1.227000000    -3.121000000    -5.084000000
C    -0.723000000     0.100000000    -4.918000000
H    -1.708000000     0.430000000    -5.238000000
C     0.321000000     1.016000000    -4.849000000
C     0.128000000     2.556000000    -5.069000000
H    -0.720000000     2.676000000    -5.747000000
H     0.993000000     2.989000000    -5.575000000
C    -0.284000000     3.182000000    -3.772000000
C    -1.715000000     3.097000000    -3.419000000
H    -2.395000000     2.492000000    -4.013000000
C     0.620000000     3.777000000    -2.877000000
C     0.117000000     4.371000000    -1.701000000
H     0.814000000     4.888000000    -1.047000000
C    -1.267000000     4.272000000    -1.362000000
O    -1.569000000     4.778000000    -0.150000000
C    -1.861000000     3.797000000     0.903000000
C    -1.299000000     4.418000000     2.170000000
C    -1.737000000     3.916000000     3.449000000
H    -2.645000000     3.319000000     3.462000000
C    -0.164000000     5.302000000     2.236000000
H     0.219000000     5.749000000     1.322000000
O    -3.267000000     3.453000000     1.080000000
H    -1.245000000     2.891000000     0.802000000
C    -2.178000000     3.709000000    -2.255000000
C    -3.593000000     3.628000000    -1.921000000
H    -4.110000000     3.637000000    -2.883000000
H    -3.862000000     4.548000000    -1.398000000
C    -3.948000000     2.449000000    -1.073000000
C    -4.450000000     1.265000000    -1.588000000
H    -4.539000000     1.054000000    -2.651000000
C    -3.779000000     2.443000000     0.336000000
C    -4.226000000     1.398000000     1.159000000
H    -4.120000000     1.441000000     2.240000000
C    -4.783000000     0.262000000     0.583000000
O    -4.809000000    -0.934000000     1.342000000
C    -3.842000000    -1.890000000     1.000000000
C    -3.208000000    -2.318000000     2.300000000
C    -2.873000000    -1.382000000     3.318000000
H    -3.039000000    -0.310000000     3.253000000
C    -2.990000000    -3.657000000     2.589000000
H    -3.356000000    -4.380000000     1.865000000
O    -4.316000000    -2.969000000     0.101000000
H    -2.995000000    -1.345000000     0.558000000
C    -4.902000000     0.211000000    -0.819000000
C    -5.470000000    -0.942000000    -1.584000000
H    -6.055000000    -0.726000000    -2.480000000
H    -6.069000000    -1.537000000    -0.891000000
C    -4.240000000    -1.839000000    -1.998000000
C    -3.792000000    -2.890000000    -1.133000000
C    -2.677000000    -3.651000000    -1.496000000
H    -2.429000000    -4.386000000    -0.734000000
C    -1.908000000    -3.412000000    -2.571000000
O    -0.679000000    -4.054000000    -2.805000000
C     0.488000000    -3.219000000    -2.564000000
H     0.115000000    -2.332000000    -2.031000000
C     1.474000000    -3.931000000    -1.594000000
C     2.837000000    -3.827000000    -1.688000000
H     3.231000000    -3.010000000    -2.287000000
C     0.966000000    -4.965000000    -0.773000000
H    -0.088000000    -5.204000000    -0.662000000
C     1.863000000    -5.737000000     0.040000000
O     1.420000000    -6.685000000     0.954000000
C     3.273000000    -5.445000000     0.014000000
H     3.964000000    -6.046000000     0.599000000
C     3.804000000    -4.530000000    -0.889000000
O     5.135000000    -4.310000000    -0.976000000
C     5.740000000    -3.345000000    -1.724000000
C     6.014000000    -2.055000000    -1.129000000
H     5.676000000    -1.934000000    -0.103000000
C     6.101000000    -3.610000000    -3.041000000
H     5.888000000    -4.595000000    -3.448000000
C     6.896000000    -2.708000000    -3.698000000
H     7.290000000    -3.046000000    -4.653000000
C     7.112000000    -1.424000000    -3.171000000
H     7.725000000    -0.662000000    -3.646000000
C     6.605000000    -1.072000000    -1.912000000
O     6.806000000     0.242000000    -1.402000000
C     5.776000000     1.167000000    -1.182000000
C     5.819000000     2.036000000    -0.067000000
H     6.713000000     1.961000000     0.546000000
C     4.717000000     2.725000000     0.394000000
O     4.743000000     3.509000000     1.560000000
C     4.200000000     4.781000000     1.638000000
C     3.180000000     4.941000000     2.564000000
H     2.740000000     4.108000000     3.106000000
C     4.690000000     5.750000000     0.726000000
H     5.444000000     5.587000000    -0.040000000
C     4.075000000     6.989000000     0.816000000
H     4.446000000     7.749000000     0.134000000
C     3.192000000     7.260000000     1.829000000
H     2.841000000     8.278000000     1.976000000
C     2.725000000     6.255000000     2.627000000
O     1.609000000     6.495000000     3.376000000
C     0.471000000     5.678000000     3.427000000
C    -0.060000000     5.153000000     4.615000000
H     0.529000000     5.543000000     5.441000000
C    -1.138000000     4.321000000     4.668000000
O    -1.596000000     3.896000000     5.904000000
C    -2.177000000     2.637000000     6.005000000
C    -1.666000000     1.494000000     5.328000000
H    -0.818000000     1.630000000     4.661000000
C    -3.226000000     2.498000000     6.953000000
H    -3.627000000     3.283000000     7.588000000
C    -3.695000000     1.226000000     7.157000000
H    -4.505000000     1.069000000     7.865000000
C    -3.121000000     0.069000000     6.567000000
H    -3.493000000    -0.932000000     6.768000000
C    -2.117000000     0.230000000     5.615000000
O    -1.424000000    -0.872000000     5.183000000
C    -2.086000000    -1.808000000     4.427000000
C    -1.859000000    -3.171000000     4.624000000
H    -1.260000000    -3.504000000     5.467000000
C    -2.388000000    -4.090000000     3.771000000
O    -2.107000000    -5.387000000     3.902000000
C    -1.710000000    -6.162000000     2.830000000
C    -2.451000000    -7.227000000     2.367000000
H    -3.410000000    -7.463000000     2.820000000
C    -2.036000000    -7.981000000     1.273000000
H    -2.671000000    -8.761000000     0.860000000
C    -0.737000000    -7.820000000     0.812000000
H    -0.402000000    -8.455000000    -0.005000000
C     0.102000000    -6.865000000     1.394000000
C    -0.418000000    -6.012000000     2.332000000
H     0.157000000    -5.190000000     2.748000000
C     1.108000000     0.588000000     2.167000000
H     1.016000000     0.930000000     3.195000000
C     0.022000000     0.571000000     1.267000000
H    -0.968000000     0.922000000     1.546000000
C     0.289000000     0.099000000     0.007000000
H    -0.525000000     0.114000000    -0.696000000
C     1.521000000    -0.404000000    -0.351000000
H     1.565000000    -0.846000000    -1.343000000
C     2.632000000    -0.395000000     0.577000000
H     3.605000000    -0.798000000     0.307000000
C     2.395000000     0.113000000     1.850000000
C     3.496000000    -0.114000000     2.920000000
O     4.457000000    -0.833000000     2.706000000
O     3.282000000     0.275000000     4.054000000
O     1.833000000    -3.122000000     2.608000000
H     1.259000000    -2.666000000     1.993000000
H     2.015000000    -2.474000000     3.289000000
O     4.803000000    -3.612000000     5.610000000
H     5.735000000    -3.750000000     5.779000000
H     4.704000000    -3.772000000     4.671000000
O     8.062000000    -2.412000000     4.921000000
H     8.051000000    -2.191000000     3.990000000
H     8.237000000    -1.581000000     5.363000000
O     6.457000000     3.817000000     3.739000000
H     6.064000000     3.354000000     4.479000000
H     5.937000000     3.545000000     2.983000000
O     2.358000000    -1.997000000     5.239000000
H     1.871000000    -1.765000000     6.030000000
H     2.833000000    -1.199000000     5.008000000
O     1.782000000    -5.013000000     4.728000000
H     1.938000000    -4.537000000     3.912000000
H     1.900000000    -4.357000000     5.415000000
O     1.750000000     1.428000000     6.053000000
H     2.407000000     1.168000000     5.407000000
H     1.546000000     0.621000000     6.525000000
O     0.878000000    -0.968000000     7.358000000
H     0.440000000    -1.568000000     7.962000000
H     0.219000000    -0.302000000     7.163000000
O     2.219000000     4.287000000     6.902000000
H     1.496000000     4.327000000     7.528000000
H     2.271000000     3.364000000     6.655000000
O     4.204000000     5.318000000     5.485000000
H     3.475000000     5.171000000     6.088000000
H     4.492000000     4.439000000     5.239000000
O     5.110000000    -0.435000000     5.727000000
H     5.155000000    -1.388000000     5.646000000
H     4.469000000    -0.169000000     5.067000000
O     8.706000000    -0.668000000     0.945000000
H     7.991000000    -0.395000000     1.520000000
H     8.575000000    -1.609000000     0.830000000
O     7.535000000    -3.182000000     1.776000000
H     7.262000000    -3.315000000     0.868000000
H     6.763000000    -3.409000000     2.295000000
O     4.812000000    -3.556000000     2.540000000
H     4.082000000    -3.751000000     1.953000000
H     4.662000000    -2.652000000     2.817000000
O     6.881000000     0.322000000     2.676000000
H     5.953000000     0.090000000     2.711000000
H     7.078000000     0.651000000     3.553000000
O     3.157000000    -5.055000000     7.561000000
H     3.072000000    -4.606000000     8.402000000
H     3.467000000    -4.379000000     6.959000000
O     4.933000000     2.638000000     5.706000000
H     4.738000000     1.759000000     5.379000000
H     4.596000000     2.639000000     6.602000000
O     5.214000000     0.395000000     8.444000000
H     5.054000000     1.307000000     8.200000000
H     5.083000000    -0.097000000     7.634000000
O     6.405000000    -6.237000000     2.620000000
H     7.315000000    -5.973000000     2.485000000
H     5.966000000    -5.440000000     2.917000000
